pyrene
     RDKit          3D

 26 29  0  0  0  0  0  0  0  0999 V2000
   -3.4323    0.7380   -0.1565 C   0  0  0  0  0  0  0  0  0  0  0  0
   -2.4975    1.7726   -0.1463 C   0  0  0  0  0  0  0  0  0  0  0  0
   -1.1241    1.4943   -0.0841 C   0  0  0  0  0  0  0  0  0  0  0  0
   -0.1700    2.5208   -0.0729 C   0  0  0  0  0  0  0  0  0  0  0  0
    1.1947    2.2274   -0.0107 C   0  0  0  0  0  0  0  0  0  0  0  0
    1.6408    0.8999    0.0419 C   0  0  0  0  0  0  0  0  0  0  0  0
    3.0072    0.5891    0.1047 C   0  0  0  0  0  0  0  0  0  0  0  0
    3.4324   -0.7380    0.1565 C   0  0  0  0  0  0  0  0  0  0  0  0
    2.4975   -1.7727    0.1463 C   0  0  0  0  0  0  0  0  0  0  0  0
    1.1241   -1.4943    0.0841 C   0  0  0  0  0  0  0  0  0  0  0  0
    0.1700   -2.5208    0.0729 C   0  0  0  0  0  0  0  0  0  0  0  0
   -1.1947   -2.2274    0.0107 C   0  0  0  0  0  0  0  0  0  0  0  0
   -1.6408   -0.8999   -0.0419 C   0  0  0  0  0  0  0  0  0  0  0  0
   -3.0072   -0.5891   -0.1047 C   0  0  0  0  0  0  0  0  0  0  0  0
   -0.6920    0.1488   -0.0315 C   0  0  0  0  0  0  0  0  0  0  0  0
    0.6920   -0.1488    0.0316 C   0  0  0  0  0  0  0  0  0  0  0  0
   -4.4939    0.9662   -0.2049 H   0  0  0  0  0  0  0  0  0  0  0  0
   -2.8498    2.8009   -0.1873 H   0  0  0  0  0  0  0  0  0  0  0  0
   -0.4816    3.5622   -0.1127 H   0  0  0  0  0  0  0  0  0  0  0  0
    1.9082    3.0484   -0.0037 H   0  0  0  0  0  0  0  0  0  0  0  0
    3.7523    1.3814    0.1137 H   0  0  0  0  0  0  0  0  0  0  0  0
    4.4939   -0.9662    0.2049 H   0  0  0  0  0  0  0  0  0  0  0  0
    2.8498   -2.8009    0.1873 H   0  0  0  0  0  0  0  0  0  0  0  0
    0.4815   -3.5622    0.1127 H   0  0  0  0  0  0  0  0  0  0  0  0
   -1.9082   -3.0484    0.0037 H   0  0  0  0  0  0  0  0  0  0  0  0
   -3.7523   -1.3814   -0.1137 H   0  0  0  0  0  0  0  0  0  0  0  0
  1  2  2  0
  2  3  1  0
  3  4  2  0
  4  5  1  0
  5  6  2  0
  6  7  1  0
  7  8  2  0
  8  9  1  0
  9 10  2  0
 10 11  1  0
 11 12  2  0
 12 13  1  0
 13 14  2  0
 13 15  1  0
 15 16  2  0
 14  1  1  0
 15  3  1  0
 16  6  1  0
 16 10  1  0
  1 17  1  0
  2 18  1  0
  4 19  1  0
  5 20  1  0
  7 21  1  0
  8 22  1  0
  9 23  1  0
 11 24  1  0
 12 25  1  0
 14 26  1  0
M  END
>  <PubChemCID>  (1) 
31423

>  <provenance>  (1) 
PRIMARY - team named it ('pyrene, should be common', 2.April)

$$$$
phenanthrene
     RDKit          3D

 24 26  0  0  0  0  0  0  0  0999 V2000
   -2.9892   -1.3039    0.2649 C   0  0  0  0  0  0  0  0  0  0  0  0
   -3.5744   -0.0816   -0.0266 C   0  0  0  0  0  0  0  0  0  0  0  0
   -2.7659    1.0246   -0.2733 C   0  0  0  0  0  0  0  0  0  0  0  0
   -1.3647    0.9234   -0.2320 C   0  0  0  0  0  0  0  0  0  0  0  0
   -0.5866    2.0559   -0.4852 C   0  0  0  0  0  0  0  0  0  0  0  0
    0.8034    1.9891   -0.4520 C   0  0  0  0  0  0  0  0  0  0  0  0
    1.4564    0.7879   -0.1645 C   0  0  0  0  0  0  0  0  0  0  0  0
    2.8613    0.7542   -0.1388 C   0  0  0  0  0  0  0  0  0  0  0  0
    3.5473   -0.4238    0.1437 C   0  0  0  0  0  0  0  0  0  0  0  0
    2.8345   -1.5838    0.4042 C   0  0  0  0  0  0  0  0  0  0  0  0
    1.4365   -1.5630    0.3815 C   0  0  0  0  0  0  0  0  0  0  0  0
    0.7009   -0.3840    0.0982 C   0  0  0  0  0  0  0  0  0  0  0  0
   -0.7383   -0.3149    0.0638 C   0  0  0  0  0  0  0  0  0  0  0  0
   -1.5963   -1.4173    0.3090 C   0  0  0  0  0  0  0  0  0  0  0  0
   -3.6106   -2.1742    0.4592 H   0  0  0  0  0  0  0  0  0  0  0  0
   -4.6560    0.0137   -0.0625 H   0  0  0  0  0  0  0  0  0  0  0  0
   -3.2423    1.9763   -0.5006 H   0  0  0  0  0  0  0  0  0  0  0  0
   -1.0567    3.0102   -0.7130 H   0  0  0  0  0  0  0  0  0  0  0  0
    1.3730    2.8935   -0.6549 H   0  0  0  0  0  0  0  0  0  0  0  0
    3.4369    1.6553   -0.3409 H   0  0  0  0  0  0  0  0  0  0  0  0
    4.6336   -0.4327    0.1596 H   0  0  0  0  0  0  0  0  0  0  0  0
    3.3597   -2.5091    0.6259 H   0  0  0  0  0  0  0  0  0  0  0  0
    0.9273   -2.4988    0.5925 H   0  0  0  0  0  0  0  0  0  0  0  0
   -1.1897   -2.3971    0.5419 H   0  0  0  0  0  0  0  0  0  0  0  0
  1  2  2  0
  2  3  1  0
  3  4  2  0
  4  5  1  0
  5  6  2  0
  6  7  1  0
  7  8  2  0
  8  9  1  0
  9 10  2  0
 10 11  1  0
 11 12  2  0
 12 13  1  0
 13 14  2  0
 14  1  1  0
 13  4  1  0
 12  7  1  0
  1 15  1  0
  2 16  1  0
  3 17  1  0
  5 18  1  0
  6 19  1  0
  8 20  1  0
  9 21  1  0
 10 22  1  0
 11 23  1  0
 14 24  1  0
M  END
>  <PubChemCID>  (2) 
995

>  <provenance>  (2) 
named (degradation intermediate; slides 8/19)

$$$$
benzo_a_pyrene
     RDKit          3D

 32 36  0  0  0  0  0  0  0  0999 V2000
    4.7549   -0.2871   -0.0852 C   0  0  0  0  0  0  0  0  0  0  0  0
    4.3809    0.7759   -0.8915 C   0  0  0  0  0  0  0  0  0  0  0  0
    3.0271    1.0886   -1.0477 C   0  0  0  0  0  0  0  0  0  0  0  0
    1.9984    0.3520   -0.4051 C   0  0  0  0  0  0  0  0  0  0  0  0
    2.4102   -0.7289    0.4126 C   0  0  0  0  0  0  0  0  0  0  0  0
    3.7746   -1.0338    0.5621 C   0  0  0  0  0  0  0  0  0  0  0  0
    1.4564   -1.5039    1.0803 C   0  0  0  0  0  0  0  0  0  0  0  0
    0.0888   -1.2411    0.9640 C   0  0  0  0  0  0  0  0  0  0  0  0
   -0.8456   -2.0340    1.6444 C   0  0  0  0  0  0  0  0  0  0  0  0
   -2.2126   -1.7816    1.5362 C   0  0  0  0  0  0  0  0  0  0  0  0
   -2.6789   -0.7288    0.7439 C   0  0  0  0  0  0  0  0  0  0  0  0
   -4.0520   -0.4663    0.6282 C   0  0  0  0  0  0  0  0  0  0  0  0
   -4.5092    0.5848   -0.1634 C   0  0  0  0  0  0  0  0  0  0  0  0
   -3.5983    1.3857   -0.8485 C   0  0  0  0  0  0  0  0  0  0  0  0
   -2.2196    1.1445   -0.7498 C   0  0  0  0  0  0  0  0  0  0  0  0
   -1.2981    1.9392   -1.4307 C   0  0  0  0  0  0  0  0  0  0  0  0
    0.0735    1.6890   -1.3245 C   0  0  0  0  0  0  0  0  0  0  0  0
    0.5931    0.6360   -0.5356 C   0  0  0  0  0  0  0  0  0  0  0  0
   -0.3503   -0.1702    0.1558 C   0  0  0  0  0  0  0  0  0  0  0  0
   -1.7476    0.0816    0.0500 C   0  0  0  0  0  0  0  0  0  0  0  0
    5.8047   -0.5367    0.0415 H   0  0  0  0  0  0  0  0  0  0  0  0
    5.1369    1.3665   -1.4022 H   0  0  0  0  0  0  0  0  0  0  0  0
    2.7906    1.9313   -1.6908 H   0  0  0  0  0  0  0  0  0  0  0  0
    4.0871   -1.8651    1.1912 H   0  0  0  0  0  0  0  0  0  0  0  0
    1.7861   -2.3320    1.7059 H   0  0  0  0  0  0  0  0  0  0  0  0
   -0.5162   -2.8614    2.2695 H   0  0  0  0  0  0  0  0  0  0  0  0
   -2.9093   -2.4170    2.0781 H   0  0  0  0  0  0  0  0  0  0  0  0
   -4.7776   -1.0813    1.1560 H   0  0  0  0  0  0  0  0  0  0  0  0
   -5.5751    0.7798   -0.2464 H   0  0  0  0  0  0  0  0  0  0  0  0
   -3.9728    2.2021   -1.4620 H   0  0  0  0  0  0  0  0  0  0  0  0
   -1.6338    2.7649   -2.0541 H   0  0  0  0  0  0  0  0  0  0  0  0
    0.7340    2.3471   -1.8818 H   0  0  0  0  0  0  0  0  0  0  0  0
  1  2  2  0
  2  3  1  0
  3  4  2  0
  4  5  1  0
  5  6  2  0
  5  7  1  0
  7  8  2  0
  8  9  1  0
  9 10  2  0
 10 11  1  0
 11 12  2  0
 12 13  1  0
 13 14  2  0
 14 15  1  0
 15 16  2  0
 16 17  1  0
 17 18  2  0
 18 19  1  0
 19 20  2  0
  6  1  1  0
 19  8  1  0
 18  4  1  0
 20 11  1  0
 20 15  1  0
  1 21  1  0
  2 22  1  0
  3 23  1  0
  6 24  1  0
  7 25  1  0
  9 26  1  0
 10 27  1  0
 12 28  1  0
 13 29  1  0
 14 30  1  0
 16 31  1  0
 17 32  1  0
M  END
>  <PubChemCID>  (3) 
2336

>  <provenance>  (3) 
named (TonB transport hypothesis, slide 5); carcinogenic marker

$$$$
naphthalene
     RDKit          3D

 18 19  0  0  0  0  0  0  0  0999 V2000
   -2.4541   -0.5841    0.2139 C   0  0  0  0  0  0  0  0  0  0  0  0
   -2.4071    0.6249   -0.4741 C   0  0  0  0  0  0  0  0  0  0  0  0
   -1.1763    1.2208   -0.7544 C   0  0  0  0  0  0  0  0  0  0  0  0
    0.0239    0.6142   -0.3495 C   0  0  0  0  0  0  0  0  0  0  0  0
    1.2704    1.2003   -0.6235 C   0  0  0  0  0  0  0  0  0  0  0  0
    2.4541    0.5841   -0.2139 C   0  0  0  0  0  0  0  0  0  0  0  0
    2.4071   -0.6249    0.4741 C   0  0  0  0  0  0  0  0  0  0  0  0
    1.1763   -1.2208    0.7544 C   0  0  0  0  0  0  0  0  0  0  0  0
   -0.0239   -0.6142    0.3495 C   0  0  0  0  0  0  0  0  0  0  0  0
   -1.2704   -1.2003    0.6235 C   0  0  0  0  0  0  0  0  0  0  0  0
   -3.4117   -1.0490    0.4327 H   0  0  0  0  0  0  0  0  0  0  0  0
   -3.3280    1.1056   -0.7934 H   0  0  0  0  0  0  0  0  0  0  0  0
   -1.1598    2.1655   -1.2930 H   0  0  0  0  0  0  0  0  0  0  0  0
    1.3273    2.1446   -1.1599 H   0  0  0  0  0  0  0  0  0  0  0  0
    3.4117    1.0490   -0.4327 H   0  0  0  0  0  0  0  0  0  0  0  0
    3.3280   -1.1056    0.7934 H   0  0  0  0  0  0  0  0  0  0  0  0
    1.1598   -2.1655    1.2930 H   0  0  0  0  0  0  0  0  0  0  0  0
   -1.3273   -2.1446    1.1599 H   0  0  0  0  0  0  0  0  0  0  0  0
  1  2  2  0
  2  3  1  0
  3  4  2  0
  4  5  1  0
  5  6  2  0
  6  7  1  0
  7  8  2  0
  8  9  1  0
  9 10  2  0
 10  1  1  0
  9  4  1  0
  1 11  1  0
  2 12  1  0
  3 13  1  0
  5 14  1  0
  6 15  1  0
  7 16  1  0
  8 17  1  0
 10 18  1  0
M  END
>  <PubChemCID>  (4) 
931

>  <provenance>  (4) 
reference smallest PAH (PAH class)

$$$$
anthracene
     RDKit          3D

 24 26  0  0  0  0  0  0  0  0999 V2000
   -3.5908    0.9843   -0.1306 C   0  0  0  0  0  0  0  0  0  0  0  0
   -3.7018   -0.3574    0.2209 C   0  0  0  0  0  0  0  0  0  0  0  0
   -2.5525   -1.1328    0.3819 C   0  0  0  0  0  0  0  0  0  0  0  0
   -1.2768   -0.5756    0.1934 C   0  0  0  0  0  0  0  0  0  0  0  0
   -0.1111   -1.3434    0.3519 C   0  0  0  0  0  0  0  0  0  0  0  0
    1.1643   -0.7855    0.1631 C   0  0  0  0  0  0  0  0  0  0  0  0
    2.3304   -1.5526    0.3215 C   0  0  0  0  0  0  0  0  0  0  0  0
    3.5908   -0.9843    0.1306 C   0  0  0  0  0  0  0  0  0  0  0  0
    3.7018    0.3574   -0.2209 C   0  0  0  0  0  0  0  0  0  0  0  0
    2.5525    1.1328   -0.3819 C   0  0  0  0  0  0  0  0  0  0  0  0
    1.2768    0.5756   -0.1934 C   0  0  0  0  0  0  0  0  0  0  0  0
    0.1111    1.3434   -0.3519 C   0  0  0  0  0  0  0  0  0  0  0  0
   -1.1643    0.7855   -0.1631 C   0  0  0  0  0  0  0  0  0  0  0  0
   -2.3304    1.5526   -0.3215 C   0  0  0  0  0  0  0  0  0  0  0  0
   -4.4843    1.5901   -0.2565 H   0  0  0  0  0  0  0  0  0  0  0  0
   -4.6822   -0.8020    0.3700 H   0  0  0  0  0  0  0  0  0  0  0  0
   -2.6598   -2.1797    0.6568 H   0  0  0  0  0  0  0  0  0  0  0  0
   -0.1979   -2.3929    0.6267 H   0  0  0  0  0  0  0  0  0  0  0  0
    2.2642   -2.6030    0.5959 H   0  0  0  0  0  0  0  0  0  0  0  0
    4.4843   -1.5900    0.2565 H   0  0  0  0  0  0  0  0  0  0  0  0
    4.6822    0.8020   -0.3700 H   0  0  0  0  0  0  0  0  0  0  0  0
    2.6598    2.1797   -0.6568 H   0  0  0  0  0  0  0  0  0  0  0  0
    0.1979    2.3929   -0.6267 H   0  0  0  0  0  0  0  0  0  0  0  0
   -2.2641    2.6030   -0.5959 H   0  0  0  0  0  0  0  0  0  0  0  0
  1  2  2  0
  2  3  1  0
  3  4  2  0
  4  5  1  0
  5  6  2  0
  6  7  1  0
  7  8  2  0
  8  9  1  0
  9 10  2  0
 10 11  1  0
 11 12  2  0
 12 13  1  0
 13 14  2  0
 14  1  1  0
 13  4  1  0
 11  6  1  0
  1 15  1  0
  2 16  1  0
  3 17  1  0
  5 18  1  0
  7 19  1  0
  8 20  1  0
  9 21  1  0
 10 22  1  0
 12 23  1  0
 14 24  1  0
M  END
>  <PubChemCID>  (5) 
8418

>  <provenance>  (5) 
specificity probe (phenanthrene isomer)

$$$$
fluoranthene
     RDKit          3D

 26 29  0  0  0  0  0  0  0  0999 V2000
    3.5666    0.7931    0.6332 C   0  0  0  0  0  0  0  0  0  0  0  0
    3.5556   -0.5958    0.8680 C   0  0  0  0  0  0  0  0  0  0  0  0
    2.3784   -1.3403    0.7414 C   0  0  0  0  0  0  0  0  0  0  0  0
    1.2267   -0.6679    0.3784 C   0  0  0  0  0  0  0  0  0  0  0  0
    1.2378    0.7363    0.1411 C   0  0  0  0  0  0  0  0  0  0  0  0
    2.4007    1.4728    0.2659 C   0  0  0  0  0  0  0  0  0  0  0  0
   -0.1213    1.1197   -0.2173 C   0  0  0  0  0  0  0  0  0  0  0  0
   -0.7055    2.3284   -0.5495 C   0  0  0  0  0  0  0  0  0  0  0  0
   -2.0800    2.3486   -0.8492 C   0  0  0  0  0  0  0  0  0  0  0  0
   -2.8585    1.1705   -0.8159 C   0  0  0  0  0  0  0  0  0  0  0  0
   -2.2675   -0.0628   -0.4779 C   0  0  0  0  0  0  0  0  0  0  0  0
   -2.8782   -1.3295   -0.3933 C   0  0  0  0  0  0  0  0  0  0  0  0
   -2.1180   -2.4649   -0.0356 C   0  0  0  0  0  0  0  0  0  0  0  0
   -0.7426   -2.3685    0.2443 C   0  0  0  0  0  0  0  0  0  0  0  0
   -0.1391   -1.1269    0.1624 C   0  0  0  0  0  0  0  0  0  0  0  0
   -0.9053   -0.0251   -0.1908 C   0  0  0  0  0  0  0  0  0  0  0  0
    4.4982    1.3448    0.7398 H   0  0  0  0  0  0  0  0  0  0  0  0
    4.4789   -1.0960    1.1523 H   0  0  0  0  0  0  0  0  0  0  0  0
    2.3763   -2.4089    0.9234 H   0  0  0  0  0  0  0  0  0  0  0  0
    2.4155    2.5417    0.0866 H   0  0  0  0  0  0  0  0  0  0  0  0
   -0.1241    3.2435   -0.5805 H   0  0  0  0  0  0  0  0  0  0  0  0
   -2.5545    3.2917   -1.1125 H   0  0  0  0  0  0  0  0  0  0  0  0
   -3.9180    1.2218   -1.0529 H   0  0  0  0  0  0  0  0  0  0  0  0
   -3.9390   -1.4396   -0.6031 H   0  0  0  0  0  0  0  0  0  0  0  0
   -2.6077   -3.4348    0.0244 H   0  0  0  0  0  0  0  0  0  0  0  0
   -0.1754   -3.2518    0.5174 H   0  0  0  0  0  0  0  0  0  0  0  0
  1  2  2  0
  2  3  1  0
  3  4  2  0
  4  5  1  0
  5  6  2  0
  5  7  1  0
  7  8  2  0
  8  9  1  0
  9 10  2  0
 10 11  1  0
 11 12  1  0
 12 13  2  0
 13 14  1  0
 14 15  2  0
 15 16  1  0
  6  1  1  0
 16  7  1  0
  4 15  1  0
 16 11  2  0
  1 17  1  0
  2 18  1  0
  3 19  1  0
  6 20  1  0
  8 21  1  0
  9 22  1  0
 10 23  1  0
 12 24  1  0
 13 25  1  0
 14 26  1  0
M  END
>  <PubChemCID>  (6) 
9154

>  <provenance>  (6) 
EQS Saar PAH

$$$$
glucose_NEGCTRL
     RDKit          3D

 24 24  0  0  0  0  0  0  0  0999 V2000
    3.2372   -1.3515    0.7031 O   0  0  0  0  0  0  0  0  0  0  0  0
    2.5584   -0.0932    0.7416 C   0  0  0  0  0  0  0  0  0  0  0  0
    1.2349   -0.1931   -0.0258 C   0  0  1  0  0  0  0  0  0  0  0  0
    0.4654   -1.2488    0.5853 O   0  0  0  0  0  0  0  0  0  0  0  0
   -0.7807   -1.4861   -0.0604 C   0  0  0  0  0  0  0  0  0  0  0  0
   -0.5876   -1.9811   -1.3789 O   0  0  0  0  0  0  0  0  0  0  0  0
   -1.6594   -0.2193   -0.0616 C   0  0  2  0  0  0  0  0  0  0  0  0
   -2.8546   -0.4209   -0.8336 O   0  0  0  0  0  0  0  0  0  0  0  0
   -0.8903    0.9549   -0.6711 C   0  0  1  0  0  0  0  0  0  0  0  0
   -1.6484    2.1679   -0.5263 O   0  0  0  0  0  0  0  0  0  0  0  0
    0.4653    1.1311    0.0149 C   0  0  2  0  0  0  0  0  0  0  0  0
    1.1878    2.1774   -0.6354 O   0  0  0  0  0  0  0  0  0  0  0  0
    2.5442   -2.0272    0.8355 H   0  0  0  0  0  0  0  0  0  0  0  0
    2.3827    0.1446    1.7960 H   0  0  0  0  0  0  0  0  0  0  0  0
    3.2207    0.6643    0.3131 H   0  0  0  0  0  0  0  0  0  0  0  0
    1.4689   -0.4820   -1.0587 H   0  0  0  0  0  0  0  0  0  0  0  0
   -1.2992   -2.2769    0.4911 H   0  0  0  0  0  0  0  0  0  0  0  0
   -1.2640   -1.5648   -1.9445 H   0  0  0  0  0  0  0  0  0  0  0  0
   -1.9592    0.0408    0.9609 H   0  0  0  0  0  0  0  0  0  0  0  0
   -3.3923   -1.0884   -0.3672 H   0  0  0  0  0  0  0  0  0  0  0  0
   -0.7565    0.8195   -1.7516 H   0  0  0  0  0  0  0  0  0  0  0  0
   -2.5312    1.9681   -0.8969 H   0  0  0  0  0  0  0  0  0  0  0  0
    0.3047    1.4469    1.0535 H   0  0  0  0  0  0  0  0  0  0  0  0
    0.5533    2.9178   -0.7201 H   0  0  0  0  0  0  0  0  0  0  0  0
  1  2  1  0
  2  3  1  0
  3  4  1  0
  4  5  1  0
  5  6  1  0
  5  7  1  0
  7  8  1  0
  7  9  1  0
  9 10  1  0
  9 11  1  0
 11 12  1  0
 11  3  1  0
  1 13  1  0
  2 14  1  0
  2 15  1  0
  3 16  1  6
  5 17  1  0
  6 18  1  0
  7 19  1  1
  8 20  1  0
  9 21  1  6
 10 22  1  0
 11 23  1  1
 12 24  1  0
M  END
>  <PubChemCID>  (7) 
5793

>  <provenance>  (7) 
PROPOSED negative control (polar, non-aromatic) - not from files

$$$$
