PahS_phenanthrene_out_p36
     RDKit          3D

 24 26  0  0  0  0  0  0  0  0999 V2000
   62.8550   66.3290   80.8210 C   0  0  0  0  0  0  0  0  0  0  0  0
   62.6220   65.0130   81.1880 C   0  0  0  0  0  0  0  0  0  0  0  0
   62.7590   64.6270   82.5240 C   0  0  0  0  0  0  0  0  0  0  0  0
   63.1340   65.5400   83.5420 C   0  0  0  0  0  0  0  0  0  0  0  0
   63.3660   66.8800   83.1380 C   0  0  0  0  0  0  0  0  0  0  0  0
   63.2240   67.2570   81.7910 C   0  0  0  0  0  0  0  0  0  0  0  0
   63.7390   67.8400   84.0830 C   0  0  0  0  0  0  0  0  0  0  0  0
   63.8880   67.5000   85.4240 C   0  0  0  0  0  0  0  0  0  0  0  0
   63.6690   66.1910   85.8600 C   0  0  0  0  0  0  0  0  0  0  0  0
   63.8280   65.8800   87.2220 C   0  0  0  0  0  0  0  0  0  0  0  0
   63.6170   64.5870   87.6940 C   0  0  0  0  0  0  0  0  0  0  0  0
   63.2460   63.5880   86.8080 C   0  0  0  0  0  0  0  0  0  0  0  0
   63.0840   63.8850   85.4520 C   0  0  0  0  0  0  0  0  0  0  0  0
   63.2890   65.1880   84.9310 C   0  0  0  0  0  0  0  0  0  0  0  0
   62.7491   66.6381   79.7706 H   0  0  0  0  0  0  0  0  0  0  0  0
   62.3295   64.2731   80.4284 H   0  0  0  0  0  0  0  0  0  0  0  0
   62.5693   63.5780   82.7955 H   0  0  0  0  0  0  0  0  0  0  0  0
   63.4073   68.3016   81.4990 H   0  0  0  0  0  0  0  0  0  0  0  0
   63.9170   68.8771   83.7626 H   0  0  0  0  0  0  0  0  0  0  0  0
   64.1821   68.2720   86.1503 H   0  0  0  0  0  0  0  0  0  0  0  0
   64.1240   66.6713   87.9264 H   0  0  0  0  0  0  0  0  0  0  0  0
   63.7439   64.3601   88.7628 H   0  0  0  0  0  0  0  0  0  0  0  0
   63.0793   62.5632   87.1714 H   0  0  0  0  0  0  0  0  0  0  0  0
   62.7869   63.0795   84.7644 H   0  0  0  0  0  0  0  0  0  0  0  0
  1  2  2  0
  2  3  1  0
  3  4  2  0
  4  5  1  0
  5  6  2  0
  5  7  1  0
  7  8  2  0
  8  9  1  0
  9 10  2  0
 10 11  1  0
 11 12  2  0
 12 13  1  0
 13 14  2  0
  6  1  1  0
 14  9  1  0
 14  4  1  0
  1 15  1  0
  2 16  1  0
  3 17  1  0
  6 18  1  0
  7 19  1  0
  8 20  1  0
 10 21  1  0
 11 22  1  0
 12 23  1  0
 13 24  1  0
M  END
>  <meeko>  (1) 
{"is_sidechain": [false], "free_energy": -8.258, "intermolecular_energy": -8.258, "internal_energy": 0.0}

$$$$
PahS_phenanthrene_out_p36
     RDKit          3D

 24 26  0  0  0  0  0  0  0  0999 V2000
   63.7880   64.6090   87.6990 C   0  0  0  0  0  0  0  0  0  0  0  0
   63.4160   63.6080   86.8170 C   0  0  0  0  0  0  0  0  0  0  0  0
   63.2200   63.9070   85.4650 C   0  0  0  0  0  0  0  0  0  0  0  0
   63.3870   65.2170   84.9470 C   0  0  0  0  0  0  0  0  0  0  0  0
   63.7680   66.2210   85.8740 C   0  0  0  0  0  0  0  0  0  0  0  0
   63.9630   65.9080   87.2300 C   0  0  0  0  0  0  0  0  0  0  0  0
   63.9530   67.5370   85.4400 C   0  0  0  0  0  0  0  0  0  0  0  0
   63.7680   67.8800   84.1030 C   0  0  0  0  0  0  0  0  0  0  0  0
   63.3920   66.9190   83.1620 C   0  0  0  0  0  0  0  0  0  0  0  0
   63.2140   67.2980   81.8200 C   0  0  0  0  0  0  0  0  0  0  0  0
   62.8410   66.3680   80.8540 C   0  0  0  0  0  0  0  0  0  0  0  0
   62.6410   65.0460   81.2190 C   0  0  0  0  0  0  0  0  0  0  0  0
   62.8160   64.6560   82.5490 C   0  0  0  0  0  0  0  0  0  0  0  0
   63.1950   65.5720   83.5640 C   0  0  0  0  0  0  0  0  0  0  0  0
   63.9442   64.3790   88.7633 H   0  0  0  0  0  0  0  0  0  0  0  0
   63.2749   62.5791   87.1795 H   0  0  0  0  0  0  0  0  0  0  0  0
   62.9262   63.0984   84.7795 H   0  0  0  0  0  0  0  0  0  0  0  0
   64.2585   66.7018   87.9318 H   0  0  0  0  0  0  0  0  0  0  0  0
   64.2483   68.3111   86.1635 H   0  0  0  0  0  0  0  0  0  0  0  0
   63.9201   68.9217   83.7839 H   0  0  0  0  0  0  0  0  0  0  0  0
   63.3721   68.3468   81.5286 H   0  0  0  0  0  0  0  0  0  0  0  0
   62.7059   66.6801   79.8079 H   0  0  0  0  0  0  0  0  0  0  0  0
   62.3448   64.3046   80.4623 H   0  0  0  0  0  0  0  0  0  0  0  0
   62.6543   63.6019   82.8187 H   0  0  0  0  0  0  0  0  0  0  0  0
  1  2  2  0
  2  3  1  0
  3  4  2  0
  4  5  1  0
  5  6  2  0
  5  7  1  0
  7  8  2  0
  8  9  1  0
  9 10  2  0
 10 11  1  0
 11 12  2  0
 12 13  1  0
 13 14  2  0
  6  1  1  0
 14  9  1  0
 14  4  1  0
  1 15  1  0
  2 16  1  0
  3 17  1  0
  6 18  1  0
  7 19  1  0
  8 20  1  0
 10 21  1  0
 11 22  1  0
 12 23  1  0
 13 24  1  0
M  END
>  <meeko>  (2) 
{"is_sidechain": [false], "free_energy": -8.209, "intermolecular_energy": -8.209, "internal_energy": 0.0}

$$$$
PahS_phenanthrene_out_p36
     RDKit          3D

 24 26  0  0  0  0  0  0  0  0999 V2000
   57.8170   76.8510   93.8750 C   0  0  0  0  0  0  0  0  0  0  0  0
   57.2200   75.8660   93.1050 C   0  0  0  0  0  0  0  0  0  0  0  0
   58.0000   75.0800   92.2510 C   0  0  0  0  0  0  0  0  0  0  0  0
   59.4030   75.2490   92.1360 C   0  0  0  0  0  0  0  0  0  0  0  0
   59.9870   76.2640   92.9370 C   0  0  0  0  0  0  0  0  0  0  0  0
   59.1930   77.0480   93.7920 C   0  0  0  0  0  0  0  0  0  0  0  0
   61.3650   76.4920   92.8800 C   0  0  0  0  0  0  0  0  0  0  0  0
   62.1790   75.7330   92.0440 C   0  0  0  0  0  0  0  0  0  0  0  0
   61.6410   74.7250   91.2410 C   0  0  0  0  0  0  0  0  0  0  0  0
   62.4910   73.9770   90.4080 C   0  0  0  0  0  0  0  0  0  0  0  0
   61.9910   72.9640   89.5940 C   0  0  0  0  0  0  0  0  0  0  0  0
   60.6320   72.6880   89.6030 C   0  0  0  0  0  0  0  0  0  0  0  0
   59.7770   73.4240   90.4270 C   0  0  0  0  0  0  0  0  0  0  0  0
   60.2470   74.4640   91.2710 C   0  0  0  0  0  0  0  0  0  0  0  0
   57.2081   77.4732   94.5474 H   0  0  0  0  0  0  0  0  0  0  0  0
   56.1339   75.7024   93.1654 H   0  0  0  0  0  0  0  0  0  0  0  0
   57.5078   74.3033   91.6473 H   0  0  0  0  0  0  0  0  0  0  0  0
   59.6660   77.8293   94.4050 H   0  0  0  0  0  0  0  0  0  0  0  0
   61.8115   77.2807   93.5033 H   0  0  0  0  0  0  0  0  0  0  0  0
   63.2609   75.9299   92.0155 H   0  0  0  0  0  0  0  0  0  0  0  0
   63.5690   74.1956   90.3990 H   0  0  0  0  0  0  0  0  0  0  0  0
   62.6692   72.3867   88.9484 H   0  0  0  0  0  0  0  0  0  0  0  0
   60.2278   71.8906   88.9621 H   0  0  0  0  0  0  0  0  0  0  0  0
   58.7023   73.1894   90.4216 H   0  0  0  0  0  0  0  0  0  0  0  0
  1  2  2  0
  2  3  1  0
  3  4  2  0
  4  5  1  0
  5  6  2  0
  5  7  1  0
  7  8  2  0
  8  9  1  0
  9 10  2  0
 10 11  1  0
 11 12  2  0
 12 13  1  0
 13 14  2  0
  6  1  1  0
 14  9  1  0
 14  4  1  0
  1 15  1  0
  2 16  1  0
  3 17  1  0
  6 18  1  0
  7 19  1  0
  8 20  1  0
 10 21  1  0
 11 22  1  0
 12 23  1  0
 13 24  1  0
M  END
>  <meeko>  (3) 
{"is_sidechain": [false], "free_energy": -7.409, "intermolecular_energy": -7.409, "internal_energy": 0.0}

$$$$
PahS_phenanthrene_out_p36
     RDKit          3D

 24 26  0  0  0  0  0  0  0  0999 V2000
   62.0730   72.9950   89.6460 C   0  0  0  0  0  0  0  0  0  0  0  0
   60.7190   72.6990   89.6330 C   0  0  0  0  0  0  0  0  0  0  0  0
   59.8400   73.4230   90.4430 C   0  0  0  0  0  0  0  0  0  0  0  0
   60.2790   74.4690   91.2930 C   0  0  0  0  0  0  0  0  0  0  0  0
   61.6700   74.7510   91.2850 C   0  0  0  0  0  0  0  0  0  0  0  0
   62.5450   74.0160   90.4670 C   0  0  0  0  0  0  0  0  0  0  0  0
   62.1800   75.7680   92.0960 C   0  0  0  0  0  0  0  0  0  0  0  0
   61.3410   76.5140   92.9190 C   0  0  0  0  0  0  0  0  0  0  0  0
   59.9670   76.2650   92.9540 C   0  0  0  0  0  0  0  0  0  0  0  0
   59.1460   77.0370   93.7950 C   0  0  0  0  0  0  0  0  0  0  0  0
   57.7720   76.8200   93.8570 C   0  0  0  0  0  0  0  0  0  0  0  0
   57.2020   75.8250   93.0770 C   0  0  0  0  0  0  0  0  0  0  0  0
   58.0070   75.0520   92.2360 C   0  0  0  0  0  0  0  0  0  0  0  0
   59.4100   75.2420   92.1450 C   0  0  0  0  0  0  0  0  0  0  0  0
   62.7700   72.4273   89.0121 H   0  0  0  0  0  0  0  0  0  0  0  0
   60.3369   71.8955   88.9862 H   0  0  0  0  0  0  0  0  0  0  0  0
   58.7692   73.1722   90.4202 H   0  0  0  0  0  0  0  0  0  0  0  0
   63.6196   74.2509   90.4754 H   0  0  0  0  0  0  0  0  0  0  0  0
   63.2589   75.9820   92.0840 H   0  0  0  0  0  0  0  0  0  0  0  0
   61.7652   77.3093   93.5495 H   0  0  0  0  0  0  0  0  0  0  0  0
   59.5970   77.8260   94.4147 H   0  0  0  0  0  0  0  0  0  0  0  0
   57.1434   77.4331   94.5196 H   0  0  0  0  0  0  0  0  0  0  0  0
   56.1178   75.6445   93.1203 H   0  0  0  0  0  0  0  0  0  0  0  0
   57.5365   74.2690   91.6232 H   0  0  0  0  0  0  0  0  0  0  0  0
  1  2  2  0
  2  3  1  0
  3  4  2  0
  4  5  1  0
  5  6  2  0
  5  7  1  0
  7  8  2  0
  8  9  1  0
  9 10  2  0
 10 11  1  0
 11 12  2  0
 12 13  1  0
 13 14  2  0
  6  1  1  0
 14  9  1  0
 14  4  1  0
  1 15  1  0
  2 16  1  0
  3 17  1  0
  6 18  1  0
  7 19  1  0
  8 20  1  0
 10 21  1  0
 11 22  1  0
 12 23  1  0
 13 24  1  0
M  END
>  <meeko>  (4) 
{"is_sidechain": [false], "free_energy": -7.397, "intermolecular_energy": -7.397, "internal_energy": 0.0}

$$$$
PahS_phenanthrene_out_p36
     RDKit          3D

 24 26  0  0  0  0  0  0  0  0999 V2000
   62.8920   70.4150   91.4480 C   0  0  0  0  0  0  0  0  0  0  0  0
   62.7370   70.9930   92.6980 C   0  0  0  0  0  0  0  0  0  0  0  0
   61.9270   72.1230   92.8480 C   0  0  0  0  0  0  0  0  0  0  0  0
   61.2440   72.7160   91.7570 C   0  0  0  0  0  0  0  0  0  0  0  0
   61.4220   72.1040   90.4890 C   0  0  0  0  0  0  0  0  0  0  0  0
   62.2370   70.9680   90.3500 C   0  0  0  0  0  0  0  0  0  0  0  0
   60.7810   72.6300   89.3640 C   0  0  0  0  0  0  0  0  0  0  0  0
   59.9660   73.7540   89.4680 C   0  0  0  0  0  0  0  0  0  0  0  0
   59.7680   74.3850   90.6980 C   0  0  0  0  0  0  0  0  0  0  0  0
   58.9390   75.5180   90.7690 C   0  0  0  0  0  0  0  0  0  0  0  0
   58.7170   76.1720   91.9770 C   0  0  0  0  0  0  0  0  0  0  0  0
   59.3240   75.7010   93.1310 C   0  0  0  0  0  0  0  0  0  0  0  0
   60.1490   74.5750   93.0740 C   0  0  0  0  0  0  0  0  0  0  0  0
   60.4010   73.8800   91.8630 C   0  0  0  0  0  0  0  0  0  0  0  0
   63.5277   69.5259   91.3238 H   0  0  0  0  0  0  0  0  0  0  0  0
   63.2504   70.5635   93.5709 H   0  0  0  0  0  0  0  0  0  0  0  0
   61.8161   72.5673   93.8481 H   0  0  0  0  0  0  0  0  0  0  0  0
   62.3598   70.5080   89.3584 H   0  0  0  0  0  0  0  0  0  0  0  0
   60.9221   72.1501   88.3843 H   0  0  0  0  0  0  0  0  0  0  0  0
   59.4713   74.1504   88.5691 H   0  0  0  0  0  0  0  0  0  0  0  0
   58.4576   75.8940   89.8542 H   0  0  0  0  0  0  0  0  0  0  0  0
   58.0644   77.0566   92.0160 H   0  0  0  0  0  0  0  0  0  0  0  0
   59.1563   76.2131   94.0900 H   0  0  0  0  0  0  0  0  0  0  0  0
   60.6197   74.2146   94.0005 H   0  0  0  0  0  0  0  0  0  0  0  0
  1  2  2  0
  2  3  1  0
  3  4  2  0
  4  5  1  0
  5  6  2  0
  5  7  1  0
  7  8  2  0
  8  9  1  0
  9 10  2  0
 10 11  1  0
 11 12  2  0
 12 13  1  0
 13 14  2  0
  6  1  1  0
 14  9  1  0
 14  4  1  0
  1 15  1  0
  2 16  1  0
  3 17  1  0
  6 18  1  0
  7 19  1  0
  8 20  1  0
 10 21  1  0
 11 22  1  0
 12 23  1  0
 13 24  1  0
M  END
>  <meeko>  (5) 
{"is_sidechain": [false], "free_energy": -7.052, "intermolecular_energy": -7.052, "internal_energy": 0.0}

$$$$
PahS_phenanthrene_out_p36
     RDKit          3D

 24 26  0  0  0  0  0  0  0  0999 V2000
   63.1670   66.9300   82.0460 C   0  0  0  0  0  0  0  0  0  0  0  0
   63.4900   67.9550   82.9200 C   0  0  0  0  0  0  0  0  0  0  0  0
   63.6730   67.6810   84.2790 C   0  0  0  0  0  0  0  0  0  0  0  0
   63.5420   66.3730   84.8120 C   0  0  0  0  0  0  0  0  0  0  0  0
   63.2120   65.3440   83.8940 C   0  0  0  0  0  0  0  0  0  0  0  0
   63.0300   65.6310   82.5300 C   0  0  0  0  0  0  0  0  0  0  0  0
   63.0650   64.0290   84.3430 C   0  0  0  0  0  0  0  0  0  0  0  0
   63.2390   63.7100   85.6870 C   0  0  0  0  0  0  0  0  0  0  0  0
   63.5640   64.6970   86.6210 C   0  0  0  0  0  0  0  0  0  0  0  0
   63.7330   64.3420   87.9710 C   0  0  0  0  0  0  0  0  0  0  0  0
   64.0580   65.2970   88.9300 C   0  0  0  0  0  0  0  0  0  0  0  0
   64.2170   66.6200   88.5500 C   0  0  0  0  0  0  0  0  0  0  0  0
   64.0530   66.9860   87.2110 C   0  0  0  0  0  0  0  0  0  0  0  0
   63.7220   66.0430   86.2040 C   0  0  0  0  0  0  0  0  0  0  0  0
   63.0196   67.1405   80.9764 H   0  0  0  0  0  0  0  0  0  0  0  0
   63.6024   68.9832   82.5455 H   0  0  0  0  0  0  0  0  0  0  0  0
   63.9273   68.5082   84.9580 H   0  0  0  0  0  0  0  0  0  0  0  0
   62.7756   64.8177   81.8345 H   0  0  0  0  0  0  0  0  0  0  0  0
   62.8085   63.2357   83.6254 H   0  0  0  0  0  0  0  0  0  0  0  0
   63.1191   62.6678   86.0177 H   0  0  0  0  0  0  0  0  0  0  0  0
   63.6063   63.2922   88.2742 H   0  0  0  0  0  0  0  0  0  0  0  0
   64.1877   65.0035   89.9822 H   0  0  0  0  0  0  0  0  0  0  0  0
   64.4721   67.3817   89.3015 H   0  0  0  0  0  0  0  0  0  0  0  0
   64.1850   68.0409   86.9284 H   0  0  0  0  0  0  0  0  0  0  0  0
  1  2  2  0
  2  3  1  0
  3  4  2  0
  4  5  1  0
  5  6  2  0
  5  7  1  0
  7  8  2  0
  8  9  1  0
  9 10  2  0
 10 11  1  0
 11 12  2  0
 12 13  1  0
 13 14  2  0
  6  1  1  0
 14  9  1  0
 14  4  1  0
  1 15  1  0
  2 16  1  0
  3 17  1  0
  6 18  1  0
  7 19  1  0
  8 20  1  0
 10 21  1  0
 11 22  1  0
 12 23  1  0
 13 24  1  0
M  END
>  <meeko>  (6) 
{"is_sidechain": [false], "free_energy": -7.048, "intermolecular_energy": -7.048, "internal_energy": 0.0}

$$$$
PahS_phenanthrene_out_p36
     RDKit          3D

 24 26  0  0  0  0  0  0  0  0999 V2000
   58.8080   76.2300   91.9910 C   0  0  0  0  0  0  0  0  0  0  0  0
   59.4220   75.7310   93.1300 C   0  0  0  0  0  0  0  0  0  0  0  0
   60.2150   74.5830   93.0470 C   0  0  0  0  0  0  0  0  0  0  0  0
   60.4240   73.8920   91.8270 C   0  0  0  0  0  0  0  0  0  0  0  0
   59.7840   74.4250   90.6790 C   0  0  0  0  0  0  0  0  0  0  0  0
   58.9890   75.5810   90.7730 C   0  0  0  0  0  0  0  0  0  0  0  0
   59.9410   73.8010   89.4380 C   0  0  0  0  0  0  0  0  0  0  0  0
   60.7210   72.6550   89.3110 C   0  0  0  0  0  0  0  0  0  0  0  0
   61.3670   72.1000   90.4180 C   0  0  0  0  0  0  0  0  0  0  0  0
   62.1480   70.9430   90.2550 C   0  0  0  0  0  0  0  0  0  0  0  0
   62.8060   70.3620   91.3350 C   0  0  0  0  0  0  0  0  0  0  0  0
   62.6910   70.9320   92.5930 C   0  0  0  0  0  0  0  0  0  0  0  0
   61.9180   72.0830   92.7680 C   0  0  0  0  0  0  0  0  0  0  0  0
   61.2310   72.7060   91.6940 C   0  0  0  0  0  0  0  0  0  0  0  0
   58.1821   77.1327   92.0497 H   0  0  0  0  0  0  0  0  0  0  0  0
   59.2852   76.2376   94.0968 H   0  0  0  0  0  0  0  0  0  0  0  0
   60.6940   74.2021   93.9610 H   0  0  0  0  0  0  0  0  0  0  0  0
   58.5026   75.9786   89.8700 H   0  0  0  0  0  0  0  0  0  0  0  0
   59.4425   74.2204   88.5517 H   0  0  0  0  0  0  0  0  0  0  0  0
   60.8301   72.1799   88.3249 H   0  0  0  0  0  0  0  0  0  0  0  0
   62.2407   70.4891   89.2573 H   0  0  0  0  0  0  0  0  0  0  0  0
   63.4134   69.4563   91.1911 H   0  0  0  0  0  0  0  0  0  0  0  0
   63.2073   70.4792   93.4523 H   0  0  0  0  0  0  0  0  0  0  0  0
   61.8393   72.5215   93.7737 H   0  0  0  0  0  0  0  0  0  0  0  0
  1  2  2  0
  2  3  1  0
  3  4  2  0
  4  5  1  0
  5  6  2  0
  5  7  1  0
  7  8  2  0
  8  9  1  0
  9 10  2  0
 10 11  1  0
 11 12  2  0
 12 13  1  0
 13 14  2  0
  6  1  1  0
 14  9  1  0
 14  4  1  0
  1 15  1  0
  2 16  1  0
  3 17  1  0
  6 18  1  0
  7 19  1  0
  8 20  1  0
 10 21  1  0
 11 22  1  0
 12 23  1  0
 13 24  1  0
M  END
>  <meeko>  (7) 
{"is_sidechain": [false], "free_energy": -7.045, "intermolecular_energy": -7.045, "internal_energy": 0.0}

$$$$
PahS_phenanthrene_out_p36
     RDKit          3D

 24 26  0  0  0  0  0  0  0  0999 V2000
   63.0020   77.4100   93.9480 C   0  0  0  0  0  0  0  0  0  0  0  0
   63.8430   76.3920   93.5270 C   0  0  0  0  0  0  0  0  0  0  0  0
   63.3960   75.4650   92.5800 C   0  0  0  0  0  0  0  0  0  0  0  0
   62.0940   75.5220   92.0200 C   0  0  0  0  0  0  0  0  0  0  0  0
   61.2560   76.5740   92.4700 C   0  0  0  0  0  0  0  0  0  0  0  0
   61.7160   77.5000   93.4210 C   0  0  0  0  0  0  0  0  0  0  0  0
   59.9590   76.6970   91.9640 C   0  0  0  0  0  0  0  0  0  0  0  0
   59.4720   75.7970   91.0210 C   0  0  0  0  0  0  0  0  0  0  0  0
   60.2680   74.7480   90.5550 C   0  0  0  0  0  0  0  0  0  0  0  0
   59.7470   73.8560   89.6010 C   0  0  0  0  0  0  0  0  0  0  0  0
   60.5100   72.7990   89.1120 C   0  0  0  0  0  0  0  0  0  0  0  0
   61.8050   72.6210   89.5730 C   0  0  0  0  0  0  0  0  0  0  0  0
   62.3350   73.5010   90.5200 C   0  0  0  0  0  0  0  0  0  0  0  0
   61.5910   74.5900   91.0430 C   0  0  0  0  0  0  0  0  0  0  0  0
   63.3478   78.1417   94.6931 H   0  0  0  0  0  0  0  0  0  0  0  0
   64.8606   76.3133   93.9371 H   0  0  0  0  0  0  0  0  0  0  0  0
   64.0777   74.6639   92.2583 H   0  0  0  0  0  0  0  0  0  0  0  0
   61.0498   78.3092   93.7548 H   0  0  0  0  0  0  0  0  0  0  0  0
   59.3146   77.5161   92.3158 H   0  0  0  0  0  0  0  0  0  0  0  0
   58.4475   75.9131   90.6378 H   0  0  0  0  0  0  0  0  0  0  0  0
   58.7192   73.9957   89.2348 H   0  0  0  0  0  0  0  0  0  0  0  0
   60.0882   72.1102   88.3653 H   0  0  0  0  0  0  0  0  0  0  0  0
   62.4148   71.7878   89.1937 H   0  0  0  0  0  0  0  0  0  0  0  0
   63.3651   73.3440   90.8724 H   0  0  0  0  0  0  0  0  0  0  0  0
  1  2  2  0
  2  3  1  0
  3  4  2  0
  4  5  1  0
  5  6  2  0
  5  7  1  0
  7  8  2  0
  8  9  1  0
  9 10  2  0
 10 11  1  0
 11 12  2  0
 12 13  1  0
 13 14  2  0
  6  1  1  0
 14  9  1  0
 14  4  1  0
  1 15  1  0
  2 16  1  0
  3 17  1  0
  6 18  1  0
  7 19  1  0
  8 20  1  0
 10 21  1  0
 11 22  1  0
 12 23  1  0
 13 24  1  0
M  END
>  <meeko>  (8) 
{"is_sidechain": [false], "free_energy": -6.819, "intermolecular_energy": -6.819, "internal_energy": 0.0}

$$$$
PahS_phenanthrene_out_p36
     RDKit          3D

 24 26  0  0  0  0  0  0  0  0999 V2000
   60.5980   72.7060   89.1530 C   0  0  0  0  0  0  0  0  0  0  0  0
   61.8840   72.5360   89.6410 C   0  0  0  0  0  0  0  0  0  0  0  0
   62.3970   73.4350   90.5810 C   0  0  0  0  0  0  0  0  0  0  0  0
   61.6450   74.5350   91.0670 C   0  0  0  0  0  0  0  0  0  0  0  0
   60.3320   74.6840   90.5490 C   0  0  0  0  0  0  0  0  0  0  0  0
   59.8270   73.7730   89.6050 C   0  0  0  0  0  0  0  0  0  0  0  0
   59.5290   75.7430   90.9790 C   0  0  0  0  0  0  0  0  0  0  0  0
   59.9990   76.6620   91.9130 C   0  0  0  0  0  0  0  0  0  0  0  0
   61.2860   76.5490   92.4440 C   0  0  0  0  0  0  0  0  0  0  0  0
   61.7310   77.4930   93.3860 C   0  0  0  0  0  0  0  0  0  0  0  0
   63.0060   77.4130   93.9380 C   0  0  0  0  0  0  0  0  0  0  0  0
   63.8540   76.3860   93.5530 C   0  0  0  0  0  0  0  0  0  0  0  0
   63.4230   75.4400   92.6190 C   0  0  0  0  0  0  0  0  0  0  0  0
   62.1320   75.4870   92.0330 C   0  0  0  0  0  0  0  0  0  0  0  0
   60.1892   72.0021   88.4131 H   0  0  0  0  0  0  0  0  0  0  0  0
   62.5000   71.6952   89.2894 H   0  0  0  0  0  0  0  0  0  0  0  0
   63.4197   73.2838   90.9568 H   0  0  0  0  0  0  0  0  0  0  0  0
   58.8061   73.9055   89.2173 H   0  0  0  0  0  0  0  0  0  0  0  0
   58.5120   75.8522   90.5743 H   0  0  0  0  0  0  0  0  0  0  0  0
   59.3485   77.4878   92.2370 H   0  0  0  0  0  0  0  0  0  0  0  0
   61.0598   78.3090   93.6920 H   0  0  0  0  0  0  0  0  0  0  0  0
   63.3386   78.1593   94.6745 H   0  0  0  0  0  0  0  0  0  0  0  0
   64.8645   76.3159   93.9820 H   0  0  0  0  0  0  0  0  0  0  0  0
   64.1088   74.6307   92.3281 H   0  0  0  0  0  0  0  0  0  0  0  0
  1  2  2  0
  2  3  1  0
  3  4  2  0
  4  5  1  0
  5  6  2  0
  5  7  1  0
  7  8  2  0
  8  9  1  0
  9 10  2  0
 10 11  1  0
 11 12  2  0
 12 13  1  0
 13 14  2  0
  6  1  1  0
 14  9  1  0
 14  4  1  0
  1 15  1  0
  2 16  1  0
  3 17  1  0
  6 18  1  0
  7 19  1  0
  8 20  1  0
 10 21  1  0
 11 22  1  0
 12 23  1  0
 13 24  1  0
M  END
>  <meeko>  (9) 
{"is_sidechain": [false], "free_energy": -6.796, "intermolecular_energy": -6.796, "internal_energy": 0.0}

$$$$
