PahS_pyrene_out_p36
     RDKit          3D

 26 29  0  0  0  0  0  0  0  0999 V2000
   58.8410   76.1470   91.9310 C   0  0  0  0  0  0  0  0  0  0  0  0
   58.9870   75.5130   90.6970 C   0  0  0  0  0  0  0  0  0  0  0  0
   59.7770   74.3600   90.5760 C   0  0  0  0  0  0  0  0  0  0  0  0
   59.9350   73.7090   89.3450 C   0  0  0  0  0  0  0  0  0  0  0  0
   60.7260   72.5610   89.2410 C   0  0  0  0  0  0  0  0  0  0  0  0
   61.3790   72.0350   90.3640 C   0  0  0  0  0  0  0  0  0  0  0  0
   62.1760   70.8850   90.2750 C   0  0  0  0  0  0  0  0  0  0  0  0
   62.8180   70.3770   91.4040 C   0  0  0  0  0  0  0  0  0  0  0  0
   62.6720   71.0100   92.6370 C   0  0  0  0  0  0  0  0  0  0  0  0
   61.8810   72.1630   92.7580 C   0  0  0  0  0  0  0  0  0  0  0  0
   61.7230   72.8150   93.9890 C   0  0  0  0  0  0  0  0  0  0  0  0
   60.9320   73.9620   94.0930 C   0  0  0  0  0  0  0  0  0  0  0  0
   60.2800   74.4880   92.9710 C   0  0  0  0  0  0  0  0  0  0  0  0
   59.4820   75.6380   93.0590 C   0  0  0  0  0  0  0  0  0  0  0  0
   60.4280   73.8430   91.7200 C   0  0  0  0  0  0  0  0  0  0  0  0
   61.2310   72.6800   91.6140 C   0  0  0  0  0  0  0  0  0  0  0  0
   58.2188   77.0503   92.0139 H   0  0  0  0  0  0  0  0  0  0  0  0
   58.4782   75.9207   89.8110 H   0  0  0  0  0  0  0  0  0  0  0  0
   59.4313   74.1055   88.4511 H   0  0  0  0  0  0  0  0  0  0  0  0
   60.8372   72.0644   88.2658 H   0  0  0  0  0  0  0  0  0  0  0  0
   62.2960   70.3788   89.3058 H   0  0  0  0  0  0  0  0  0  0  0  0
   63.4412   69.4744   91.3211 H   0  0  0  0  0  0  0  0  0  0  0  0
   63.1811   70.6025   93.5229 H   0  0  0  0  0  0  0  0  0  0  0  0
   62.2273   72.4192   94.8828 H   0  0  0  0  0  0  0  0  0  0  0  0
   60.8200   74.4580   95.0684 H   0  0  0  0  0  0  0  0  0  0  0  0
   59.3608   76.1435   94.0284 H   0  0  0  0  0  0  0  0  0  0  0  0
  1  2  2  0
  2  3  1  0
  3  4  2  0
  4  5  1  0
  5  6  2  0
  6  7  1  0
  7  8  2  0
  8  9  1  0
  9 10  2  0
 10 11  1  0
 11 12  2  0
 12 13  1  0
 13 14  2  0
 13 15  1  0
 15 16  2  0
 14  1  1  0
 15  3  1  0
 16  6  1  0
 16 10  1  0
  1 17  1  0
  2 18  1  0
  4 19  1  0
  5 20  1  0
  7 21  1  0
  8 22  1  0
  9 23  1  0
 11 24  1  0
 12 25  1  0
 14 26  1  0
M  END
>  <meeko>  (1) 
{"is_sidechain": [false], "free_energy": -7.863, "intermolecular_energy": -7.863, "internal_energy": 0.0}

$$$$
PahS_pyrene_out_p36
     RDKit          3D

 26 29  0  0  0  0  0  0  0  0999 V2000
   58.8770   76.1500   91.9610 C   0  0  0  0  0  0  0  0  0  0  0  0
   59.5150   75.6190   93.0810 C   0  0  0  0  0  0  0  0  0  0  0  0
   60.2900   74.4530   92.9750 C   0  0  0  0  0  0  0  0  0  0  0  0
   60.9400   73.9050   94.0890 C   0  0  0  0  0  0  0  0  0  0  0  0
   61.7080   72.7440   93.9680 C   0  0  0  0  0  0  0  0  0  0  0  0
   61.8450   72.1010   92.7300 C   0  0  0  0  0  0  0  0  0  0  0  0
   62.6120   70.9350   92.5920 C   0  0  0  0  0  0  0  0  0  0  0  0
   62.7370   70.3090   91.3530 C   0  0  0  0  0  0  0  0  0  0  0  0
   62.0990   70.8400   90.2330 C   0  0  0  0  0  0  0  0  0  0  0  0
   61.3240   72.0060   90.3390 C   0  0  0  0  0  0  0  0  0  0  0  0
   60.6740   72.5540   89.2250 C   0  0  0  0  0  0  0  0  0  0  0  0
   59.9060   73.7160   89.3460 C   0  0  0  0  0  0  0  0  0  0  0  0
   59.7680   74.3580   90.5830 C   0  0  0  0  0  0  0  0  0  0  0  0
   59.0020   75.5250   90.7210 C   0  0  0  0  0  0  0  0  0  0  0  0
   60.4180   73.8190   91.7180 C   0  0  0  0  0  0  0  0  0  0  0  0
   61.1960   72.6410   91.5950 C   0  0  0  0  0  0  0  0  0  0  0  0
   58.2733   77.0646   92.0558 H   0  0  0  0  0  0  0  0  0  0  0  0
   59.4104   76.1176   94.0559 H   0  0  0  0  0  0  0  0  0  0  0  0
   60.8446   74.3943   95.0696 H   0  0  0  0  0  0  0  0  0  0  0  0
   62.2108   72.3299   94.8544 H   0  0  0  0  0  0  0  0  0  0  0  0
   63.1200   70.5103   93.4704 H   0  0  0  0  0  0  0  0  0  0  0  0
   63.3403   69.3941   91.2587 H   0  0  0  0  0  0  0  0  0  0  0  0
   62.2036   70.3414   89.2581 H   0  0  0  0  0  0  0  0  0  0  0  0
   60.7691   72.0645   88.2445 H   0  0  0  0  0  0  0  0  0  0  0  0
   59.4043   74.1308   88.4593 H   0  0  0  0  0  0  0  0  0  0  0  0
   58.4952   75.9511   89.8426 H   0  0  0  0  0  0  0  0  0  0  0  0
  1  2  2  0
  2  3  1  0
  3  4  2  0
  4  5  1  0
  5  6  2  0
  6  7  1  0
  7  8  2  0
  8  9  1  0
  9 10  2  0
 10 11  1  0
 11 12  2  0
 12 13  1  0
 13 14  2  0
 13 15  1  0
 15 16  2  0
 14  1  1  0
 15  3  1  0
 16  6  1  0
 16 10  1  0
  1 17  1  0
  2 18  1  0
  4 19  1  0
  5 20  1  0
  7 21  1  0
  8 22  1  0
  9 23  1  0
 11 24  1  0
 12 25  1  0
 14 26  1  0
M  END
>  <meeko>  (2) 
{"is_sidechain": [false], "free_energy": -7.859, "intermolecular_energy": -7.859, "internal_energy": 0.0}

$$$$
PahS_pyrene_out_p36
     RDKit          3D

 26 29  0  0  0  0  0  0  0  0999 V2000
   62.7400   70.3200   91.4380 C   0  0  0  0  0  0  0  0  0  0  0  0
   62.1080   70.8360   90.3070 C   0  0  0  0  0  0  0  0  0  0  0  0
   61.3330   72.0030   90.3920 C   0  0  0  0  0  0  0  0  0  0  0  0
   60.6910   72.5370   89.2660 C   0  0  0  0  0  0  0  0  0  0  0  0
   59.9220   73.7000   89.3670 C   0  0  0  0  0  0  0  0  0  0  0  0
   59.7750   74.3580   90.5950 C   0  0  0  0  0  0  0  0  0  0  0  0
   59.0070   75.5250   90.7120 C   0  0  0  0  0  0  0  0  0  0  0  0
   58.8730   76.1670   91.9430 C   0  0  0  0  0  0  0  0  0  0  0  0
   59.5050   75.6510   93.0730 C   0  0  0  0  0  0  0  0  0  0  0  0
   60.2800   74.4850   92.9880 C   0  0  0  0  0  0  0  0  0  0  0  0
   60.9220   73.9510   94.1140 C   0  0  0  0  0  0  0  0  0  0  0  0
   61.6900   72.7880   94.0130 C   0  0  0  0  0  0  0  0  0  0  0  0
   61.8370   72.1290   92.7860 C   0  0  0  0  0  0  0  0  0  0  0  0
   62.6050   70.9620   92.6680 C   0  0  0  0  0  0  0  0  0  0  0  0
   61.1960   72.6540   91.6390 C   0  0  0  0  0  0  0  0  0  0  0  0
   60.4160   73.8330   91.7410 C   0  0  0  0  0  0  0  0  0  0  0  0
   63.3458   69.4052   91.3594 H   0  0  0  0  0  0  0  0  0  0  0  0
   62.2179   70.3238   89.3397 H   0  0  0  0  0  0  0  0  0  0  0  0
   60.7935   72.0354   88.2924 H   0  0  0  0  0  0  0  0  0  0  0  0
   59.4264   74.1033   88.4716 H   0  0  0  0  0  0  0  0  0  0  0  0
   58.5053   75.9383   89.8246 H   0  0  0  0  0  0  0  0  0  0  0  0
   58.2676   77.0820   92.0221 H   0  0  0  0  0  0  0  0  0  0  0  0
   59.3950   76.1629   94.0404 H   0  0  0  0  0  0  0  0  0  0  0  0
   60.8201   74.4529   95.0875 H   0  0  0  0  0  0  0  0  0  0  0  0
   62.1854   72.3850   94.9086 H   0  0  0  0  0  0  0  0  0  0  0  0
   63.1064   70.5485   93.5555 H   0  0  0  0  0  0  0  0  0  0  0  0
  1  2  2  0
  2  3  1  0
  3  4  2  0
  4  5  1  0
  5  6  2  0
  6  7  1  0
  7  8  2  0
  8  9  1  0
  9 10  2  0
 10 11  1  0
 11 12  2  0
 12 13  1  0
 13 14  2  0
 13 15  1  0
 15 16  2  0
 14  1  1  0
 15  3  1  0
 16  6  1  0
 16 10  1  0
  1 17  1  0
  2 18  1  0
  4 19  1  0
  5 20  1  0
  7 21  1  0
  8 22  1  0
  9 23  1  0
 11 24  1  0
 12 25  1  0
 14 26  1  0
M  END
>  <meeko>  (3) 
{"is_sidechain": [false], "free_energy": -7.851, "intermolecular_energy": -7.851, "internal_energy": 0.0}

$$$$
PahS_pyrene_out_p36
     RDKit          3D

 26 29  0  0  0  0  0  0  0  0999 V2000
   62.7480   70.3080   91.4290 C   0  0  0  0  0  0  0  0  0  0  0  0
   62.6130   70.9440   92.6620 C   0  0  0  0  0  0  0  0  0  0  0  0
   61.8460   72.1130   92.7820 C   0  0  0  0  0  0  0  0  0  0  0  0
   61.6970   72.7670   94.0130 C   0  0  0  0  0  0  0  0  0  0  0  0
   60.9300   73.9310   94.1160 C   0  0  0  0  0  0  0  0  0  0  0  0
   60.2920   74.4710   92.9920 C   0  0  0  0  0  0  0  0  0  0  0  0
   59.5200   75.6380   93.0790 C   0  0  0  0  0  0  0  0  0  0  0  0
   58.8920   76.1600   91.9490 C   0  0  0  0  0  0  0  0  0  0  0  0
   59.0270   75.5240   90.7160 C   0  0  0  0  0  0  0  0  0  0  0  0
   59.7940   74.3550   90.5960 C   0  0  0  0  0  0  0  0  0  0  0  0
   59.9420   73.7010   89.3650 C   0  0  0  0  0  0  0  0  0  0  0  0
   60.7100   72.5370   89.2620 C   0  0  0  0  0  0  0  0  0  0  0  0
   61.3470   71.9970   90.3860 C   0  0  0  0  0  0  0  0  0  0  0  0
   62.1200   70.8300   90.2990 C   0  0  0  0  0  0  0  0  0  0  0  0
   61.2080   72.6440   91.6370 C   0  0  0  0  0  0  0  0  0  0  0  0
   60.4310   73.8240   91.7410 C   0  0  0  0  0  0  0  0  0  0  0  0
   63.3515   69.3920   91.3473 H   0  0  0  0  0  0  0  0  0  0  0  0
   63.1120   70.5259   93.5487 H   0  0  0  0  0  0  0  0  0  0  0  0
   62.1894   72.3594   94.9082 H   0  0  0  0  0  0  0  0  0  0  0  0
   60.8262   74.4289   95.0914 H   0  0  0  0  0  0  0  0  0  0  0  0
   59.4087   76.1466   94.0480 H   0  0  0  0  0  0  0  0  0  0  0  0
   58.2885   77.0760   92.0307 H   0  0  0  0  0  0  0  0  0  0  0  0
   58.5280   75.9421   89.8293 H   0  0  0  0  0  0  0  0  0  0  0  0
   59.4485   74.1080   88.4701 H   0  0  0  0  0  0  0  0  0  0  0  0
   60.8150   72.0397   88.2865 H   0  0  0  0  0  0  0  0  0  0  0  0
   62.2319   70.3217   89.3299 H   0  0  0  0  0  0  0  0  0  0  0  0
  1  2  2  0
  2  3  1  0
  3  4  2  0
  4  5  1  0
  5  6  2  0
  6  7  1  0
  7  8  2  0
  8  9  1  0
  9 10  2  0
 10 11  1  0
 11 12  2  0
 12 13  1  0
 13 14  2  0
 13 15  1  0
 15 16  2  0
 14  1  1  0
 15  3  1  0
 16  6  1  0
 16 10  1  0
  1 17  1  0
  2 18  1  0
  4 19  1  0
  5 20  1  0
  7 21  1  0
  8 22  1  0
  9 23  1  0
 11 24  1  0
 12 25  1  0
 14 26  1  0
M  END
>  <meeko>  (4) 
{"is_sidechain": [false], "free_energy": -7.847, "intermolecular_energy": -7.847, "internal_energy": 0.0}

$$$$
PahS_pyrene_out_p36
     RDKit          3D

 26 29  0  0  0  0  0  0  0  0999 V2000
   60.3760   72.8870   88.9370 C   0  0  0  0  0  0  0  0  0  0  0  0
   59.5510   73.8830   89.4570 C   0  0  0  0  0  0  0  0  0  0  0  0
   60.0350   74.7790   90.4220 C   0  0  0  0  0  0  0  0  0  0  0  0
   59.2210   75.7880   90.9560 C   0  0  0  0  0  0  0  0  0  0  0  0
   59.7180   76.6730   91.9170 C   0  0  0  0  0  0  0  0  0  0  0  0
   61.0410   76.5730   92.3680 C   0  0  0  0  0  0  0  0  0  0  0  0
   61.5540   77.4540   93.3310 C   0  0  0  0  0  0  0  0  0  0  0  0
   62.8730   77.3390   93.7680 C   0  0  0  0  0  0  0  0  0  0  0  0
   63.6980   76.3430   93.2480 C   0  0  0  0  0  0  0  0  0  0  0  0
   63.2140   75.4460   92.2830 C   0  0  0  0  0  0  0  0  0  0  0  0
   64.0280   74.4380   91.7490 C   0  0  0  0  0  0  0  0  0  0  0  0
   63.5310   73.5520   90.7890 C   0  0  0  0  0  0  0  0  0  0  0  0
   62.2090   73.6520   90.3380 C   0  0  0  0  0  0  0  0  0  0  0  0
   61.6950   72.7720   89.3740 C   0  0  0  0  0  0  0  0  0  0  0  0
   61.3730   74.6640   90.8650 C   0  0  0  0  0  0  0  0  0  0  0  0
   61.8760   75.5610   91.8400 C   0  0  0  0  0  0  0  0  0  0  0  0
   59.9857   72.1904   88.1804 H   0  0  0  0  0  0  0  0  0  0  0  0
   58.5113   73.9672   89.1077 H   0  0  0  0  0  0  0  0  0  0  0  0
   58.1797   75.8842   90.6149 H   0  0  0  0  0  0  0  0  0  0  0  0
   59.0628   77.4573   92.3241 H   0  0  0  0  0  0  0  0  0  0  0  0
   60.9096   78.2433   93.7455 H   0  0  0  0  0  0  0  0  0  0  0  0
   63.2633   78.0356   94.5246 H   0  0  0  0  0  0  0  0  0  0  0  0
   64.7378   76.2592   93.5971 H   0  0  0  0  0  0  0  0  0  0  0  0
   65.0698   74.3430   92.0892 H   0  0  0  0  0  0  0  0  0  0  0  0
   64.1859   72.7670   90.3830 H   0  0  0  0  0  0  0  0  0  0  0  0
   62.3392   71.9831   88.9586 H   0  0  0  0  0  0  0  0  0  0  0  0
  1  2  2  0
  2  3  1  0
  3  4  2  0
  4  5  1  0
  5  6  2  0
  6  7  1  0
  7  8  2  0
  8  9  1  0
  9 10  2  0
 10 11  1  0
 11 12  2  0
 12 13  1  0
 13 14  2  0
 13 15  1  0
 15 16  2  0
 14  1  1  0
 15  3  1  0
 16  6  1  0
 16 10  1  0
  1 17  1  0
  2 18  1  0
  4 19  1  0
  5 20  1  0
  7 21  1  0
  8 22  1  0
  9 23  1  0
 11 24  1  0
 12 25  1  0
 14 26  1  0
M  END
>  <meeko>  (5) 
{"is_sidechain": [false], "free_energy": -7.274, "intermolecular_energy": -7.274, "internal_energy": 0.0}

$$$$
PahS_pyrene_out_p36
     RDKit          3D

 26 29  0  0  0  0  0  0  0  0999 V2000
   60.3730   72.8970   88.8780 C   0  0  0  0  0  0  0  0  0  0  0  0
   61.6920   72.8050   89.3190 C   0  0  0  0  0  0  0  0  0  0  0  0
   62.1820   73.6860   90.2950 C   0  0  0  0  0  0  0  0  0  0  0  0
   63.5050   73.6080   90.7510 C   0  0  0  0  0  0  0  0  0  0  0  0
   63.9780   74.4940   91.7240 C   0  0  0  0  0  0  0  0  0  0  0  0
   63.1420   75.4790   92.2640 C   0  0  0  0  0  0  0  0  0  0  0  0
   63.6020   76.3750   93.2400 C   0  0  0  0  0  0  0  0  0  0  0  0
   62.7550   77.3500   93.7660 C   0  0  0  0  0  0  0  0  0  0  0  0
   61.4350   77.4420   93.3250 C   0  0  0  0  0  0  0  0  0  0  0  0
   60.9450   76.5600   92.3490 C   0  0  0  0  0  0  0  0  0  0  0  0
   59.6220   76.6380   91.8930 C   0  0  0  0  0  0  0  0  0  0  0  0
   59.1490   75.7530   90.9200 C   0  0  0  0  0  0  0  0  0  0  0  0
   59.9860   74.7670   90.3800 C   0  0  0  0  0  0  0  0  0  0  0  0
   59.5250   73.8710   89.4040 C   0  0  0  0  0  0  0  0  0  0  0  0
   61.3240   74.6740   90.8290 C   0  0  0  0  0  0  0  0  0  0  0  0
   61.8040   75.5730   91.8150 C   0  0  0  0  0  0  0  0  0  0  0  0
   60.0001   72.1997   88.1133 H   0  0  0  0  0  0  0  0  0  0  0  0
   62.3549   72.0347   88.8981 H   0  0  0  0  0  0  0  0  0  0  0  0
   64.1783   72.8418   90.3392 H   0  0  0  0  0  0  0  0  0  0  0  0
   65.0195   74.4162   92.0694 H   0  0  0  0  0  0  0  0  0  0  0  0
   64.6413   76.3080   93.5941 H   0  0  0  0  0  0  0  0  0  0  0  0
   63.1286   78.0477   94.5300 H   0  0  0  0  0  0  0  0  0  0  0  0
   60.7721   78.2125   93.7457 H   0  0  0  0  0  0  0  0  0  0  0  0
   58.9487   77.4039   92.3053 H   0  0  0  0  0  0  0  0  0  0  0  0
   58.1077   75.8313   90.5741 H   0  0  0  0  0  0  0  0  0  0  0  0
   58.4855   73.9373   89.0505 H   0  0  0  0  0  0  0  0  0  0  0  0
  1  2  2  0
  2  3  1  0
  3  4  2  0
  4  5  1  0
  5  6  2  0
  6  7  1  0
  7  8  2  0
  8  9  1  0
  9 10  2  0
 10 11  1  0
 11 12  2  0
 12 13  1  0
 13 14  2  0
 13 15  1  0
 15 16  2  0
 14  1  1  0
 15  3  1  0
 16  6  1  0
 16 10  1  0
  1 17  1  0
  2 18  1  0
  4 19  1  0
  5 20  1  0
  7 21  1  0
  8 22  1  0
  9 23  1  0
 11 24  1  0
 12 25  1  0
 14 26  1  0
M  END
>  <meeko>  (6) 
{"is_sidechain": [false], "free_energy": -7.257, "intermolecular_energy": -7.257, "internal_energy": 0.0}

$$$$
PahS_pyrene_out_p36
     RDKit          3D

 26 29  0  0  0  0  0  0  0  0999 V2000
   64.3510   74.0070   90.5910 C   0  0  0  0  0  0  0  0  0  0  0  0
   63.1700   73.5670   89.9950 C   0  0  0  0  0  0  0  0  0  0  0  0
   61.9300   74.0810   90.4030 C   0  0  0  0  0  0  0  0  0  0  0  0
   60.7320   73.6520   89.8150 C   0  0  0  0  0  0  0  0  0  0  0  0
   59.5040   74.1730   90.2320 C   0  0  0  0  0  0  0  0  0  0  0  0
   59.4420   75.1360   91.2480 C   0  0  0  0  0  0  0  0  0  0  0  0
   58.2180   75.6690   91.6780 C   0  0  0  0  0  0  0  0  0  0  0  0
   58.1770   76.6270   92.6900 C   0  0  0  0  0  0  0  0  0  0  0  0
   59.3580   77.0670   93.2870 C   0  0  0  0  0  0  0  0  0  0  0  0
   60.5980   76.5530   92.8780 C   0  0  0  0  0  0  0  0  0  0  0  0
   61.7960   76.9820   93.4670 C   0  0  0  0  0  0  0  0  0  0  0  0
   63.0240   76.4610   93.0490 C   0  0  0  0  0  0  0  0  0  0  0  0
   63.0850   75.4980   92.0330 C   0  0  0  0  0  0  0  0  0  0  0  0
   64.3090   74.9650   91.6030 C   0  0  0  0  0  0  0  0  0  0  0  0
   61.8860   75.0530   91.4290 C   0  0  0  0  0  0  0  0  0  0  0  0
   60.6420   75.5810   91.8530 C   0  0  0  0  0  0  0  0  0  0  0  0
   65.3176   73.5976   90.2622 H   0  0  0  0  0  0  0  0  0  0  0  0
   63.2108   72.8101   89.1978 H   0  0  0  0  0  0  0  0  0  0  0  0
   60.7587   72.8964   89.0160 H   0  0  0  0  0  0  0  0  0  0  0  0
   58.5755   73.8231   89.7572 H   0  0  0  0  0  0  0  0  0  0  0  0
   57.2816   75.3279   91.2124 H   0  0  0  0  0  0  0  0  0  0  0  0
   57.2105   77.0369   93.0185 H   0  0  0  0  0  0  0  0  0  0  0  0
   59.3172   77.8231   94.0849 H   0  0  0  0  0  0  0  0  0  0  0  0
   61.7692   77.7368   94.2667 H   0  0  0  0  0  0  0  0  0  0  0  0
   63.9529   76.8110   93.5230 H   0  0  0  0  0  0  0  0  0  0  0  0
   65.2452   75.3063   92.0689 H   0  0  0  0  0  0  0  0  0  0  0  0
  1  2  2  0
  2  3  1  0
  3  4  2  0
  4  5  1  0
  5  6  2  0
  6  7  1  0
  7  8  2  0
  8  9  1  0
  9 10  2  0
 10 11  1  0
 11 12  2  0
 12 13  1  0
 13 14  2  0
 13 15  1  0
 15 16  2  0
 14  1  1  0
 15  3  1  0
 16  6  1  0
 16 10  1  0
  1 17  1  0
  2 18  1  0
  4 19  1  0
  5 20  1  0
  7 21  1  0
  8 22  1  0
  9 23  1  0
 11 24  1  0
 12 25  1  0
 14 26  1  0
M  END
>  <meeko>  (7) 
{"is_sidechain": [false], "free_energy": -7.19, "intermolecular_energy": -7.19, "internal_energy": 0.0}

$$$$
PahS_pyrene_out_p36
     RDKit          3D

 26 29  0  0  0  0  0  0  0  0999 V2000
   58.2090   76.5450   92.6150 C   0  0  0  0  0  0  0  0  0  0  0  0
   58.2930   75.5750   91.6180 C   0  0  0  0  0  0  0  0  0  0  0  0
   59.5380   75.0650   91.2210 C   0  0  0  0  0  0  0  0  0  0  0  0
   59.6430   74.0880   90.2210 C   0  0  0  0  0  0  0  0  0  0  0  0
   60.8910   73.5900   89.8360 C   0  0  0  0  0  0  0  0  0  0  0  0
   62.0660   74.0560   90.4410 C   0  0  0  0  0  0  0  0  0  0  0  0
   63.3250   73.5660   90.0660 C   0  0  0  0  0  0  0  0  0  0  0  0
   64.4840   74.0420   90.6790 C   0  0  0  0  0  0  0  0  0  0  0  0
   64.4000   75.0130   91.6760 C   0  0  0  0  0  0  0  0  0  0  0  0
   63.1540   75.5220   92.0730 C   0  0  0  0  0  0  0  0  0  0  0  0
   63.0500   76.4990   93.0730 C   0  0  0  0  0  0  0  0  0  0  0  0
   61.8020   76.9970   93.4570 C   0  0  0  0  0  0  0  0  0  0  0  0
   60.6270   76.5320   92.8530 C   0  0  0  0  0  0  0  0  0  0  0  0
   59.3670   77.0210   93.2280 C   0  0  0  0  0  0  0  0  0  0  0  0
   60.7130   75.5460   91.8420 C   0  0  0  0  0  0  0  0  0  0  0  0
   61.9790   75.0420   91.4520 C   0  0  0  0  0  0  0  0  0  0  0  0
   57.2268   76.9359   92.9190 H   0  0  0  0  0  0  0  0  0  0  0  0
   57.3747   75.2059   91.1380 H   0  0  0  0  0  0  0  0  0  0  0  0
   58.7326   73.7089   89.7337 H   0  0  0  0  0  0  0  0  0  0  0  0
   60.9515   72.8236   89.0492 H   0  0  0  0  0  0  0  0  0  0  0  0
   63.3994   72.7990   89.2810 H   0  0  0  0  0  0  0  0  0  0  0  0
   65.4661   73.6506   90.3753 H   0  0  0  0  0  0  0  0  0  0  0  0
   65.3182   75.3832   92.1554 H   0  0  0  0  0  0  0  0  0  0  0  0
   63.9604   76.8776   93.5606 H   0  0  0  0  0  0  0  0  0  0  0  0
   61.7417   77.7637   94.2434 H   0  0  0  0  0  0  0  0  0  0  0  0
   59.2919   77.7875   94.0134 H   0  0  0  0  0  0  0  0  0  0  0  0
  1  2  2  0
  2  3  1  0
  3  4  2  0
  4  5  1  0
  5  6  2  0
  6  7  1  0
  7  8  2  0
  8  9  1  0
  9 10  2  0
 10 11  1  0
 11 12  2  0
 12 13  1  0
 13 14  2  0
 13 15  1  0
 15 16  2  0
 14  1  1  0
 15  3  1  0
 16  6  1  0
 16 10  1  0
  1 17  1  0
  2 18  1  0
  4 19  1  0
  5 20  1  0
  7 21  1  0
  8 22  1  0
  9 23  1  0
 11 24  1  0
 12 25  1  0
 14 26  1  0
M  END
>  <meeko>  (8) 
{"is_sidechain": [false], "free_energy": -7.179, "intermolecular_energy": -7.179, "internal_energy": 0.0}

$$$$
PahS_pyrene_out_p36
     RDKit          3D

 26 29  0  0  0  0  0  0  0  0999 V2000
   58.1620   76.4900   92.6700 C   0  0  0  0  0  0  0  0  0  0  0  0
   59.3210   76.9480   93.2960 C   0  0  0  0  0  0  0  0  0  0  0  0
   60.5810   76.4690   92.9040 C   0  0  0  0  0  0  0  0  0  0  0  0
   61.7570   76.9180   93.5200 C   0  0  0  0  0  0  0  0  0  0  0  0
   63.0040   76.4310   93.1190 C   0  0  0  0  0  0  0  0  0  0  0  0
   63.1070   75.4830   92.0920 C   0  0  0  0  0  0  0  0  0  0  0  0
   64.3510   74.9840   91.6790 C   0  0  0  0  0  0  0  0  0  0  0  0
   64.4340   74.0410   90.6550 C   0  0  0  0  0  0  0  0  0  0  0  0
   63.2750   73.5830   90.0300 C   0  0  0  0  0  0  0  0  0  0  0  0
   62.0150   74.0620   90.4220 C   0  0  0  0  0  0  0  0  0  0  0  0
   60.8390   73.6130   89.8060 C   0  0  0  0  0  0  0  0  0  0  0  0
   59.5920   74.1000   90.2070 C   0  0  0  0  0  0  0  0  0  0  0  0
   59.4890   75.0480   91.2330 C   0  0  0  0  0  0  0  0  0  0  0  0
   58.2450   75.5470   91.6470 C   0  0  0  0  0  0  0  0  0  0  0  0
   60.6660   75.5130   91.8660 C   0  0  0  0  0  0  0  0  0  0  0  0
   61.9300   75.0180   91.4600 C   0  0  0  0  0  0  0  0  0  0  0  0
   57.1802   76.8738   92.9843 H   0  0  0  0  0  0  0  0  0  0  0  0
   59.2472   77.6909   94.1038 H   0  0  0  0  0  0  0  0  0  0  0  0
   61.6979   77.6620   94.3281 H   0  0  0  0  0  0  0  0  0  0  0  0
   63.9153   76.7960   93.6153 H   0  0  0  0  0  0  0  0  0  0  0  0
   65.2701   75.3399   92.1675 H   0  0  0  0  0  0  0  0  0  0  0  0
   65.4157   73.6578   90.3398 H   0  0  0  0  0  0  0  0  0  0  0  0
   63.3485   72.8397   89.2225 H   0  0  0  0  0  0  0  0  0  0  0  0
   60.8981   72.8690   88.9979 H   0  0  0  0  0  0  0  0  0  0  0  0
   58.6807   73.7346   89.7111 H   0  0  0  0  0  0  0  0  0  0  0  0
   57.3257   75.1904   91.1593 H   0  0  0  0  0  0  0  0  0  0  0  0
  1  2  2  0
  2  3  1  0
  3  4  2  0
  4  5  1  0
  5  6  2  0
  6  7  1  0
  7  8  2  0
  8  9  1  0
  9 10  2  0
 10 11  1  0
 11 12  2  0
 12 13  1  0
 13 14  2  0
 13 15  1  0
 15 16  2  0
 14  1  1  0
 15  3  1  0
 16  6  1  0
 16 10  1  0
  1 17  1  0
  2 18  1  0
  4 19  1  0
  5 20  1  0
  7 21  1  0
  8 22  1  0
  9 23  1  0
 11 24  1  0
 12 25  1  0
 14 26  1  0
M  END
>  <meeko>  (9) 
{"is_sidechain": [false], "free_energy": -7.172, "intermolecular_energy": -7.172, "internal_energy": 0.0}

$$$$
