PahS_fluoranthene_out_p36
     RDKit          3D

 26 29  0  0  0  0  0  0  0  0999 V2000
   57.1050   76.1490   92.5980 C   0  0  0  0  0  0  0  0  0  0  0  0
   57.5870   76.0510   93.9180 C   0  0  0  0  0  0  0  0  0  0  0  0
   58.7380   75.3120   94.2130 C   0  0  0  0  0  0  0  0  0  0  0  0
   59.3860   74.6830   93.1680 C   0  0  0  0  0  0  0  0  0  0  0  0
   58.8980   74.7810   91.8340 C   0  0  0  0  0  0  0  0  0  0  0  0
   57.7610   75.5110   91.5400 C   0  0  0  0  0  0  0  0  0  0  0  0
   59.8020   74.0100   90.9900 C   0  0  0  0  0  0  0  0  0  0  0  0
   59.8360   73.7470   89.6330 C   0  0  0  0  0  0  0  0  0  0  0  0
   60.8760   72.9440   89.1300 C   0  0  0  0  0  0  0  0  0  0  0  0
   61.8700   72.4110   89.9800 C   0  0  0  0  0  0  0  0  0  0  0  0
   61.8410   72.6760   91.3630 C   0  0  0  0  0  0  0  0  0  0  0  0
   62.7370   72.2350   92.3560 C   0  0  0  0  0  0  0  0  0  0  0  0
   62.5460   72.6060   93.7050 C   0  0  0  0  0  0  0  0  0  0  0  0
   61.4660   73.4170   94.0970 C   0  0  0  0  0  0  0  0  0  0  0  0
   60.5830   73.8520   93.1250 C   0  0  0  0  0  0  0  0  0  0  0  0
   60.7900   73.4760   91.8060 C   0  0  0  0  0  0  0  0  0  0  0  0
   56.1976   76.7370   92.3958 H   0  0  0  0  0  0  0  0  0  0  0  0
   57.0500   76.5636   94.7298 H   0  0  0  0  0  0  0  0  0  0  0  0
   59.1145   75.2345   95.2437 H   0  0  0  0  0  0  0  0  0  0  0  0
   57.3851   75.5874   90.5090 H   0  0  0  0  0  0  0  0  0  0  0  0
   59.0669   74.1565   88.9616 H   0  0  0  0  0  0  0  0  0  0  0  0
   60.9158   72.7268   88.0524 H   0  0  0  0  0  0  0  0  0  0  0  0
   62.6712   71.7855   89.5596 H   0  0  0  0  0  0  0  0  0  0  0  0
   63.5901   71.5982   92.0793 H   0  0  0  0  0  0  0  0  0  0  0  0
   63.2576   72.2529   94.4659 H   0  0  0  0  0  0  0  0  0  0  0  0
   61.3267   73.6987   95.1512 H   0  0  0  0  0  0  0  0  0  0  0  0
  1  2  2  0
  2  3  1  0
  3  4  2  0
  4  5  1  0
  5  6  2  0
  5  7  1  0
  7  8  2  0
  8  9  1  0
  9 10  2  0
 10 11  1  0
 11 12  1  0
 12 13  2  0
 13 14  1  0
 14 15  2  0
 15 16  1  0
  6  1  1  0
 16  7  1  0
 15  4  1  0
 16 11  2  0
  1 17  1  0
  2 18  1  0
  3 19  1  0
  6 20  1  0
  8 21  1  0
  9 22  1  0
 10 23  1  0
 12 24  1  0
 13 25  1  0
 14 26  1  0
M  END
>  <meeko>  (1) 
{"is_sidechain": [false], "free_energy": -8.004, "intermolecular_energy": -8.004, "internal_energy": 0.0}

$$$$
PahS_fluoranthene_out_p36
     RDKit          3D

 26 29  0  0  0  0  0  0  0  0999 V2000
   57.6010   76.0930   93.9250 C   0  0  0  0  0  0  0  0  0  0  0  0
   57.1300   76.2000   92.6020 C   0  0  0  0  0  0  0  0  0  0  0  0
   57.7820   75.5510   91.5490 C   0  0  0  0  0  0  0  0  0  0  0  0
   58.9040   74.8020   91.8490 C   0  0  0  0  0  0  0  0  0  0  0  0
   59.3800   74.6940   93.1860 C   0  0  0  0  0  0  0  0  0  0  0  0
   58.7370   75.3340   94.2290 C   0  0  0  0  0  0  0  0  0  0  0  0
   60.5630   73.8440   93.1510 C   0  0  0  0  0  0  0  0  0  0  0  0
   61.4320   73.3920   94.1270 C   0  0  0  0  0  0  0  0  0  0  0  0
   62.5010   72.5620   93.7430 C   0  0  0  0  0  0  0  0  0  0  0  0
   62.6940   72.1890   92.3950 C   0  0  0  0  0  0  0  0  0  0  0  0
   61.8120   72.6460   91.3960 C   0  0  0  0  0  0  0  0  0  0  0  0
   61.8460   72.3830   90.0130 C   0  0  0  0  0  0  0  0  0  0  0  0
   60.8670   72.9330   89.1570 C   0  0  0  0  0  0  0  0  0  0  0  0
   59.8380   73.7540   89.6530 C   0  0  0  0  0  0  0  0  0  0  0  0
   59.8000   74.0160   91.0110 C   0  0  0  0  0  0  0  0  0  0  0  0
   60.7730   73.4640   91.8330 C   0  0  0  0  0  0  0  0  0  0  0  0
   57.0671   76.6147   94.7329 H   0  0  0  0  0  0  0  0  0  0  0  0
   56.2346   76.8040   92.3937 H   0  0  0  0  0  0  0  0  0  0  0  0
   57.4139   75.6339   90.5157 H   0  0  0  0  0  0  0  0  0  0  0  0
   59.1054   75.2497   95.2621 H   0  0  0  0  0  0  0  0  0  0  0  0
   61.2905   73.6752   95.1805 H   0  0  0  0  0  0  0  0  0  0  0  0
   63.2009   72.1961   94.5087 H   0  0  0  0  0  0  0  0  0  0  0  0
   63.5379   71.5378   92.1232 H   0  0  0  0  0  0  0  0  0  0  0  0
   62.6400   71.7453   89.5971 H   0  0  0  0  0  0  0  0  0  0  0  0
   60.9098   72.7149   88.0797 H   0  0  0  0  0  0  0  0  0  0  0  0
   59.0810   74.1779   88.9768 H   0  0  0  0  0  0  0  0  0  0  0  0
  1  2  2  0
  2  3  1  0
  3  4  2  0
  4  5  1  0
  5  6  2  0
  5  7  1  0
  7  8  2  0
  8  9  1  0
  9 10  2  0
 10 11  1  0
 11 12  1  0
 12 13  2  0
 13 14  1  0
 14 15  2  0
 15 16  1  0
  6  1  1  0
 16  7  1  0
 15  4  1  0
 16 11  2  0
  1 17  1  0
  2 18  1  0
  3 19  1  0
  6 20  1  0
  8 21  1  0
  9 22  1  0
 10 23  1  0
 12 24  1  0
 13 25  1  0
 14 26  1  0
M  END
>  <meeko>  (2) 
{"is_sidechain": [false], "free_energy": -8.003, "intermolecular_energy": -8.003, "internal_energy": 0.0}

$$$$
PahS_fluoranthene_out_p36
     RDKit          3D

 26 29  0  0  0  0  0  0  0  0999 V2000
   57.9860   76.8340   93.9400 C   0  0  0  0  0  0  0  0  0  0  0  0
   57.1990   76.0170   93.1040 C   0  0  0  0  0  0  0  0  0  0  0  0
   57.7880   75.1930   92.1390 C   0  0  0  0  0  0  0  0  0  0  0  0
   59.1650   75.2070   92.0330 C   0  0  0  0  0  0  0  0  0  0  0  0
   59.9600   76.0330   92.8780 C   0  0  0  0  0  0  0  0  0  0  0  0
   59.3800   76.8480   93.8320 C   0  0  0  0  0  0  0  0  0  0  0  0
   61.3520   75.8100   92.5070 C   0  0  0  0  0  0  0  0  0  0  0  0
   62.5480   76.3250   92.9720 C   0  0  0  0  0  0  0  0  0  0  0  0
   63.7440   75.8840   92.3780 C   0  0  0  0  0  0  0  0  0  0  0  0
   63.7400   74.9380   91.3300 C   0  0  0  0  0  0  0  0  0  0  0  0
   62.5240   74.4100   90.8520 C   0  0  0  0  0  0  0  0  0  0  0  0
   62.3250   73.4680   89.8250 C   0  0  0  0  0  0  0  0  0  0  0  0
   61.0190   73.0530   89.4810 C   0  0  0  0  0  0  0  0  0  0  0  0
   59.8890   73.5620   90.1460 C   0  0  0  0  0  0  0  0  0  0  0  0
   60.0800   74.4880   91.1550 C   0  0  0  0  0  0  0  0  0  0  0  0
   61.3710   74.8810   91.4770 C   0  0  0  0  0  0  0  0  0  0  0  0
   57.4954   77.4715   94.6902 H   0  0  0  0  0  0  0  0  0  0  0  0
   56.1044   76.0273   93.2119 H   0  0  0  0  0  0  0  0  0  0  0  0
   57.1745   74.5548   91.4860 H   0  0  0  0  0  0  0  0  0  0  0  0
   59.9944   77.4861   94.4842 H   0  0  0  0  0  0  0  0  0  0  0  0
   62.5636   77.0627   93.7878 H   0  0  0  0  0  0  0  0  0  0  0  0
   64.7032   76.2847   92.7376 H   0  0  0  0  0  0  0  0  0  0  0  0
   64.6911   74.6113   90.8842 H   0  0  0  0  0  0  0  0  0  0  0  0
   63.1905   73.0530   89.2877 H   0  0  0  0  0  0  0  0  0  0  0  0
   60.8830   72.3160   88.6758 H   0  0  0  0  0  0  0  0  0  0  0  0
   58.8769   73.2312   89.8699 H   0  0  0  0  0  0  0  0  0  0  0  0
  1  2  2  0
  2  3  1  0
  3  4  2  0
  4  5  1  0
  5  6  2  0
  5  7  1  0
  7  8  2  0
  8  9  1  0
  9 10  2  0
 10 11  1  0
 11 12  1  0
 12 13  2  0
 13 14  1  0
 14 15  2  0
 15 16  1  0
  6  1  1  0
 16  7  1  0
 15  4  1  0
 16 11  2  0
  1 17  1  0
  2 18  1  0
  3 19  1  0
  6 20  1  0
  8 21  1  0
  9 22  1  0
 10 23  1  0
 12 24  1  0
 13 25  1  0
 14 26  1  0
M  END
>  <meeko>  (3) 
{"is_sidechain": [false], "free_energy": -7.941, "intermolecular_energy": -7.941, "internal_energy": 0.0}

$$$$
PahS_fluoranthene_out_p36
     RDKit          3D

 26 29  0  0  0  0  0  0  0  0999 V2000
   57.2260   75.9870   93.1040 C   0  0  0  0  0  0  0  0  0  0  0  0
   58.0150   76.8120   93.9300 C   0  0  0  0  0  0  0  0  0  0  0  0
   59.4090   76.8320   93.8100 C   0  0  0  0  0  0  0  0  0  0  0  0
   59.9850   76.0170   92.8550 C   0  0  0  0  0  0  0  0  0  0  0  0
   59.1890   75.1820   92.0210 C   0  0  0  0  0  0  0  0  0  0  0  0
   57.8110   75.1610   92.1380 C   0  0  0  0  0  0  0  0  0  0  0  0
   60.0990   74.4640   91.1400 C   0  0  0  0  0  0  0  0  0  0  0  0
   59.9060   73.5320   90.1370 C   0  0  0  0  0  0  0  0  0  0  0  0
   61.0330   73.0250   89.4650 C   0  0  0  0  0  0  0  0  0  0  0  0
   62.3390   73.4480   89.7960 C   0  0  0  0  0  0  0  0  0  0  0  0
   62.5420   74.3970   90.8180 C   0  0  0  0  0  0  0  0  0  0  0  0
   63.7580   74.9330   91.2830 C   0  0  0  0  0  0  0  0  0  0  0  0
   63.7660   75.8850   92.3260 C   0  0  0  0  0  0  0  0  0  0  0  0
   62.5730   76.3230   92.9280 C   0  0  0  0  0  0  0  0  0  0  0  0
   61.3750   75.7990   92.4750 C   0  0  0  0  0  0  0  0  0  0  0  0
   61.3920   74.8650   91.4480 C   0  0  0  0  0  0  0  0  0  0  0  0
   56.1322   75.9924   93.2205 H   0  0  0  0  0  0  0  0  0  0  0  0
   57.5273   77.4506   94.6812 H   0  0  0  0  0  0  0  0  0  0  0  0
   60.0257   77.4754   94.4548 H   0  0  0  0  0  0  0  0  0  0  0  0
   57.1956   74.5165   91.4932 H   0  0  0  0  0  0  0  0  0  0  0  0
   58.8936   73.1945   89.8705 H   0  0  0  0  0  0  0  0  0  0  0  0
   60.8940   72.2833   88.6647 H   0  0  0  0  0  0  0  0  0  0  0  0
   63.2021   73.0348   89.2535 H   0  0  0  0  0  0  0  0  0  0  0  0
   64.7071   74.6084   90.8314 H   0  0  0  0  0  0  0  0  0  0  0  0
   64.7262   76.2927   92.6751 H   0  0  0  0  0  0  0  0  0  0  0  0
   62.5917   77.0648   93.7400 H   0  0  0  0  0  0  0  0  0  0  0  0
  1  2  2  0
  2  3  1  0
  3  4  2  0
  4  5  1  0
  5  6  2  0
  5  7  1  0
  7  8  2  0
  8  9  1  0
  9 10  2  0
 10 11  1  0
 11 12  1  0
 12 13  2  0
 13 14  1  0
 14 15  2  0
 15 16  1  0
  6  1  1  0
 16  7  1  0
 15  4  1  0
 16 11  2  0
  1 17  1  0
  2 18  1  0
  3 19  1  0
  6 20  1  0
  8 21  1  0
  9 22  1  0
 10 23  1  0
 12 24  1  0
 13 25  1  0
 14 26  1  0
M  END
>  <meeko>  (4) 
{"is_sidechain": [false], "free_energy": -7.914, "intermolecular_energy": -7.914, "internal_energy": 0.0}

$$$$
PahS_fluoranthene_out_p36
     RDKit          3D

 26 29  0  0  0  0  0  0  0  0999 V2000
   63.4500   72.0990   95.2120 C   0  0  0  0  0  0  0  0  0  0  0  0
   64.0060   71.3580   94.1510 C   0  0  0  0  0  0  0  0  0  0  0  0
   63.5000   71.4690   92.8510 C   0  0  0  0  0  0  0  0  0  0  0  0
   62.4390   72.3280   92.6430 C   0  0  0  0  0  0  0  0  0  0  0  0
   61.8770   73.0760   93.7160 C   0  0  0  0  0  0  0  0  0  0  0  0
   62.3750   72.9680   95.0010 C   0  0  0  0  0  0  0  0  0  0  0  0
   60.7890   73.8700   93.1590 C   0  0  0  0  0  0  0  0  0  0  0  0
   59.8980   74.7720   93.7120 C   0  0  0  0  0  0  0  0  0  0  0  0
   58.9470   75.3780   92.8700 C   0  0  0  0  0  0  0  0  0  0  0  0
   58.8920   75.0820   91.4900 C   0  0  0  0  0  0  0  0  0  0  0  0
   59.7970   74.1650   90.9220 C   0  0  0  0  0  0  0  0  0  0  0  0
   59.8930   73.7490   89.5800 C   0  0  0  0  0  0  0  0  0  0  0  0
   60.8750   72.8110   89.1920 C   0  0  0  0  0  0  0  0  0  0  0  0
   61.7790   72.2670   90.1220 C   0  0  0  0  0  0  0  0  0  0  0  0
   61.6890   72.6720   91.4420 C   0  0  0  0  0  0  0  0  0  0  0  0
   60.7160   73.5950   91.8010 C   0  0  0  0  0  0  0  0  0  0  0  0
   63.8685   71.9923   96.2237 H   0  0  0  0  0  0  0  0  0  0  0  0
   64.8510   70.6816   94.3473 H   0  0  0  0  0  0  0  0  0  0  0  0
   63.9334   70.8907   92.0217 H   0  0  0  0  0  0  0  0  0  0  0  0
   61.9403   73.5462   95.8297 H   0  0  0  0  0  0  0  0  0  0  0  0
   59.9320   75.0102   94.7854 H   0  0  0  0  0  0  0  0  0  0  0  0
   58.2316   76.0972   93.2955 H   0  0  0  0  0  0  0  0  0  0  0  0
   58.1379   75.5706   90.8555 H   0  0  0  0  0  0  0  0  0  0  0  0
   59.1994   74.1568   88.8299 H   0  0  0  0  0  0  0  0  0  0  0  0
   60.9341   72.4989   88.1389 H   0  0  0  0  0  0  0  0  0  0  0  0
   62.5394   71.5370   89.8075 H   0  0  0  0  0  0  0  0  0  0  0  0
  1  2  2  0
  2  3  1  0
  3  4  2  0
  4  5  1  0
  5  6  2  0
  5  7  1  0
  7  8  2  0
  8  9  1  0
  9 10  2  0
 10 11  1  0
 11 12  1  0
 12 13  2  0
 13 14  1  0
 14 15  2  0
 15 16  1  0
  6  1  1  0
 16  7  1  0
 15  4  1  0
 16 11  2  0
  1 17  1  0
  2 18  1  0
  3 19  1  0
  6 20  1  0
  8 21  1  0
  9 22  1  0
 10 23  1  0
 12 24  1  0
 13 25  1  0
 14 26  1  0
M  END
>  <meeko>  (5) 
{"is_sidechain": [false], "free_energy": -7.627, "intermolecular_energy": -7.627, "internal_energy": 0.0}

$$$$
PahS_fluoranthene_out_p36
     RDKit          3D

 26 29  0  0  0  0  0  0  0  0999 V2000
   63.9830   71.3860   94.1730 C   0  0  0  0  0  0  0  0  0  0  0  0
   63.4250   72.1250   95.2340 C   0  0  0  0  0  0  0  0  0  0  0  0
   62.3480   72.9920   95.0220 C   0  0  0  0  0  0  0  0  0  0  0  0
   61.8500   73.0990   93.7380 C   0  0  0  0  0  0  0  0  0  0  0  0
   62.4140   72.3520   92.6650 C   0  0  0  0  0  0  0  0  0  0  0  0
   63.4790   71.4950   92.8730 C   0  0  0  0  0  0  0  0  0  0  0  0
   61.6650   72.6950   91.4640 C   0  0  0  0  0  0  0  0  0  0  0  0
   61.7560   72.2920   90.1440 C   0  0  0  0  0  0  0  0  0  0  0  0
   60.8510   72.8330   89.2130 C   0  0  0  0  0  0  0  0  0  0  0  0
   59.8670   73.7680   89.6010 C   0  0  0  0  0  0  0  0  0  0  0  0
   59.7700   74.1840   90.9430 C   0  0  0  0  0  0  0  0  0  0  0  0
   58.8620   75.0990   91.5110 C   0  0  0  0  0  0  0  0  0  0  0  0
   58.9160   75.3930   92.8920 C   0  0  0  0  0  0  0  0  0  0  0  0
   59.8670   74.7900   93.7340 C   0  0  0  0  0  0  0  0  0  0  0  0
   60.7610   73.8900   93.1810 C   0  0  0  0  0  0  0  0  0  0  0  0
   60.6900   73.6160   91.8220 C   0  0  0  0  0  0  0  0  0  0  0  0
   64.8295   70.7117   94.3700 H   0  0  0  0  0  0  0  0  0  0  0  0
   63.8429   72.0187   96.2460 H   0  0  0  0  0  0  0  0  0  0  0  0
   61.9120   73.5696   95.8504 H   0  0  0  0  0  0  0  0  0  0  0  0
   63.9151   70.9184   92.0439 H   0  0  0  0  0  0  0  0  0  0  0  0
   62.5190   71.5648   89.8294 H   0  0  0  0  0  0  0  0  0  0  0  0
   60.9113   72.5208   88.1599 H   0  0  0  0  0  0  0  0  0  0  0  0
   59.1722   74.1739   88.8510 H   0  0  0  0  0  0  0  0  0  0  0  0
   58.1074   75.5869   90.8765 H   0  0  0  0  0  0  0  0  0  0  0  0
   58.1981   76.1095   93.3178 H   0  0  0  0  0  0  0  0  0  0  0  0
   59.8996   75.0281   94.8074 H   0  0  0  0  0  0  0  0  0  0  0  0
  1  2  2  0
  2  3  1  0
  3  4  2  0
  4  5  1  0
  5  6  2  0
  5  7  1  0
  7  8  2  0
  8  9  1  0
  9 10  2  0
 10 11  1  0
 11 12  1  0
 12 13  2  0
 13 14  1  0
 14 15  2  0
 15 16  1  0
  6  1  1  0
 16  7  1  0
 15  4  1  0
 16 11  2  0
  1 17  1  0
  2 18  1  0
  3 19  1  0
  6 20  1  0
  8 21  1  0
  9 22  1  0
 10 23  1  0
 12 24  1  0
 13 25  1  0
 14 26  1  0
M  END
>  <meeko>  (6) 
{"is_sidechain": [false], "free_energy": -7.623, "intermolecular_energy": -7.623, "internal_energy": 0.0}

$$$$
PahS_fluoranthene_out_p36
     RDKit          3D

 26 29  0  0  0  0  0  0  0  0999 V2000
   60.8970   71.3670   90.3920 C   0  0  0  0  0  0  0  0  0  0  0  0
   62.2380   71.7070   90.6530 C   0  0  0  0  0  0  0  0  0  0  0  0
   62.5690   72.9180   91.2720 C   0  0  0  0  0  0  0  0  0  0  0  0
   61.5360   73.7680   91.6170 C   0  0  0  0  0  0  0  0  0  0  0  0
   60.1800   73.4250   91.3530 C   0  0  0  0  0  0  0  0  0  0  0  0
   59.8520   72.2290   90.7410 C   0  0  0  0  0  0  0  0  0  0  0  0
   59.3580   74.5260   91.8360 C   0  0  0  0  0  0  0  0  0  0  0  0
   57.9940   74.7520   91.8510 C   0  0  0  0  0  0  0  0  0  0  0  0
   57.5180   75.9530   92.4080 C   0  0  0  0  0  0  0  0  0  0  0  0
   58.4010   76.9160   92.9440 C   0  0  0  0  0  0  0  0  0  0  0  0
   59.7920   76.6910   92.9310 C   0  0  0  0  0  0  0  0  0  0  0  0
   60.8160   77.5280   93.4140 C   0  0  0  0  0  0  0  0  0  0  0  0
   62.1680   77.1310   93.3150 C   0  0  0  0  0  0  0  0  0  0  0  0
   62.5310   75.9010   92.7360 C   0  0  0  0  0  0  0  0  0  0  0  0
   61.5280   75.0760   92.2600 C   0  0  0  0  0  0  0  0  0  0  0  0
   60.2070   75.4860   92.3680 C   0  0  0  0  0  0  0  0  0  0  0  0
   60.6671   70.4076   89.9055 H   0  0  0  0  0  0  0  0  0  0  0  0
   63.0387   71.0096   90.3658 H   0  0  0  0  0  0  0  0  0  0  0  0
   63.6165   73.1840   91.4769 H   0  0  0  0  0  0  0  0  0  0  0  0
   58.8043   71.9643   90.5355 H   0  0  0  0  0  0  0  0  0  0  0  0
   57.2965   74.0092   91.4366 H   0  0  0  0  0  0  0  0  0  0  0  0
   56.4352   76.1460   92.4264 H   0  0  0  0  0  0  0  0  0  0  0  0
   58.0010   77.8462   93.3737 H   0  0  0  0  0  0  0  0  0  0  0  0
   60.5619   78.4959   93.8707 H   0  0  0  0  0  0  0  0  0  0  0  0
   62.9541   77.7978   93.6989 H   0  0  0  0  0  0  0  0  0  0  0  0
   63.5873   75.6026   92.6636 H   0  0  0  0  0  0  0  0  0  0  0  0
  1  2  2  0
  2  3  1  0
  3  4  2  0
  4  5  1  0
  5  6  2  0
  5  7  1  0
  7  8  2  0
  8  9  1  0
  9 10  2  0
 10 11  1  0
 11 12  1  0
 12 13  2  0
 13 14  1  0
 14 15  2  0
 15 16  1  0
  6  1  1  0
 16  7  1  0
 15  4  1  0
 16 11  2  0
  1 17  1  0
  2 18  1  0
  3 19  1  0
  6 20  1  0
  8 21  1  0
  9 22  1  0
 10 23  1  0
 12 24  1  0
 13 25  1  0
 14 26  1  0
M  END
>  <meeko>  (7) 
{"is_sidechain": [false], "free_energy": -7.341, "intermolecular_energy": -7.341, "internal_energy": 0.0}

$$$$
PahS_fluoranthene_out_p36
     RDKit          3D

 26 29  0  0  0  0  0  0  0  0999 V2000
   62.1900   71.6380   90.6160 C   0  0  0  0  0  0  0  0  0  0  0  0
   60.8250   71.3760   90.3860 C   0  0  0  0  0  0  0  0  0  0  0  0
   59.8400   72.2900   90.7760 C   0  0  0  0  0  0  0  0  0  0  0  0
   60.2490   73.4560   91.3930 C   0  0  0  0  0  0  0  0  0  0  0  0
   61.6290   73.7200   91.6260 C   0  0  0  0  0  0  0  0  0  0  0  0
   62.6040   72.8180   91.2410 C   0  0  0  0  0  0  0  0  0  0  0  0
   61.7110   75.0160   92.2860 C   0  0  0  0  0  0  0  0  0  0  0  0
   62.7690   75.7780   92.7460 C   0  0  0  0  0  0  0  0  0  0  0  0
   62.4920   77.0170   93.3510 C   0  0  0  0  0  0  0  0  0  0  0  0
   61.1670   77.4860   93.4920 C   0  0  0  0  0  0  0  0  0  0  0  0
   60.0850   76.7150   93.0250 C   0  0  0  0  0  0  0  0  0  0  0  0
   58.7100   77.0160   93.0780 C   0  0  0  0  0  0  0  0  0  0  0  0
   57.7610   76.1110   92.5530 C   0  0  0  0  0  0  0  0  0  0  0  0
   58.1530   74.8940   91.9680 C   0  0  0  0  0  0  0  0  0  0  0  0
   59.5030   74.5940   91.9130 C   0  0  0  0  0  0  0  0  0  0  0  0
   60.4180   75.4970   92.4350 C   0  0  0  0  0  0  0  0  0  0  0  0
   62.9429   70.9016   90.2984 H   0  0  0  0  0  0  0  0  0  0  0  0
   60.5291   70.4386   89.8923 H   0  0  0  0  0  0  0  0  0  0  0  0
   58.7739   72.0864   90.5969 H   0  0  0  0  0  0  0  0  0  0  0  0
   63.6699   73.0222   91.4206 H   0  0  0  0  0  0  0  0  0  0  0  0
   63.8048   75.4229   92.6411 H   0  0  0  0  0  0  0  0  0  0  0  0
   63.3241   77.6334   93.7220 H   0  0  0  0  0  0  0  0  0  0  0  0
   60.9793   78.4591   93.9693 H   0  0  0  0  0  0  0  0  0  0  0  0
   58.3736   77.9605   93.5305 H   0  0  0  0  0  0  0  0  0  0  0  0
   56.6916   76.3639   92.6029 H   0  0  0  0  0  0  0  0  0  0  0  0
   57.4044   74.1968   91.5636 H   0  0  0  0  0  0  0  0  0  0  0  0
  1  2  2  0
  2  3  1  0
  3  4  2  0
  4  5  1  0
  5  6  2  0
  5  7  1  0
  7  8  2  0
  8  9  1  0
  9 10  2  0
 10 11  1  0
 11 12  1  0
 12 13  2  0
 13 14  1  0
 14 15  2  0
 15 16  1  0
  6  1  1  0
 16  7  1  0
 15  4  1  0
 16 11  2  0
  1 17  1  0
  2 18  1  0
  3 19  1  0
  6 20  1  0
  8 21  1  0
  9 22  1  0
 10 23  1  0
 12 24  1  0
 13 25  1  0
 14 26  1  0
M  END
>  <meeko>  (8) 
{"is_sidechain": [false], "free_energy": -7.285, "intermolecular_energy": -7.285, "internal_energy": 0.0}

$$$$
PahS_fluoranthene_out_p36
     RDKit          3D

 26 29  0  0  0  0  0  0  0  0999 V2000
   59.1080   75.6800   90.7720 C   0  0  0  0  0  0  0  0  0  0  0  0
   59.7040   76.4670   91.7760 C   0  0  0  0  0  0  0  0  0  0  0  0
   60.7040   75.9460   92.6040 C   0  0  0  0  0  0  0  0  0  0  0  0
   61.0860   74.6330   92.4040 C   0  0  0  0  0  0  0  0  0  0  0  0
   60.4830   73.8370   91.3890 C   0  0  0  0  0  0  0  0  0  0  0  0
   59.4950   74.3510   90.5700 C   0  0  0  0  0  0  0  0  0  0  0  0
   61.1080   72.5220   91.4500 C   0  0  0  0  0  0  0  0  0  0  0  0
   60.9340   71.3580   90.7240 C   0  0  0  0  0  0  0  0  0  0  0  0
   61.7230   70.2400   91.0490 C   0  0  0  0  0  0  0  0  0  0  0  0
   62.6750   70.2890   92.0900 C   0  0  0  0  0  0  0  0  0  0  0  0
   62.8570   71.4720   92.8340 C   0  0  0  0  0  0  0  0  0  0  0  0
   63.7490   71.7070   93.8980 C   0  0  0  0  0  0  0  0  0  0  0  0
   63.7910   72.9700   94.5280 C   0  0  0  0  0  0  0  0  0  0  0  0
   62.9520   74.0230   94.1180 C   0  0  0  0  0  0  0  0  0  0  0  0
   62.0740   73.7970   93.0730 C   0  0  0  0  0  0  0  0  0  0  0  0
   62.0500   72.5480   92.4690 C   0  0  0  0  0  0  0  0  0  0  0  0
   58.3247   76.1177   90.1357 H   0  0  0  0  0  0  0  0  0  0  0  0
   59.3779   77.5088   91.9115 H   0  0  0  0  0  0  0  0  0  0  0  0
   61.1706   76.5607   93.3879 H   0  0  0  0  0  0  0  0  0  0  0  0
   59.0290   73.7358   89.7861 H   0  0  0  0  0  0  0  0  0  0  0  0
   60.1951   71.3076   89.9106 H   0  0  0  0  0  0  0  0  0  0  0  0
   61.5955   69.3074   90.4798 H   0  0  0  0  0  0  0  0  0  0  0  0
   63.2782   69.3988   92.3218 H   0  0  0  0  0  0  0  0  0  0  0  0
   64.4166   70.9025   94.2402 H   0  0  0  0  0  0  0  0  0  0  0  0
   64.4948   73.1345   95.3573 H   0  0  0  0  0  0  0  0  0  0  0  0
   62.9934   75.0026   94.6167 H   0  0  0  0  0  0  0  0  0  0  0  0
  1  2  2  0
  2  3  1  0
  3  4  2  0
  4  5  1  0
  5  6  2  0
  5  7  1  0
  7  8  2  0
  8  9  1  0
  9 10  2  0
 10 11  1  0
 11 12  1  0
 12 13  2  0
 13 14  1  0
 14 15  2  0
 15 16  1  0
  6  1  1  0
 16  7  1  0
 15  4  1  0
 16 11  2  0
  1 17  1  0
  2 18  1  0
  3 19  1  0
  6 20  1  0
  8 21  1  0
  9 22  1  0
 10 23  1  0
 12 24  1  0
 13 25  1  0
 14 26  1  0
M  END
>  <meeko>  (9) 
{"is_sidechain": [false], "free_energy": -7.173, "intermolecular_energy": -7.173, "internal_energy": 0.0}

$$$$
