PahS_benzo_a_pyrene_out_p36
     RDKit          3D

 32 36  0  0  0  0  0  0  0  0999 V2000
   57.2120   76.2340   92.6710 C   0  0  0  0  0  0  0  0  0  0  0  0
   57.7320   76.1280   93.9510 C   0  0  0  0  0  0  0  0  0  0  0  0
   58.8480   75.3190   94.1840 C   0  0  0  0  0  0  0  0  0  0  0  0
   59.4860   74.5870   93.1490 C   0  0  0  0  0  0  0  0  0  0  0  0
   58.9330   74.7140   91.8500 C   0  0  0  0  0  0  0  0  0  0  0  0
   57.8090   75.5310   91.6280 C   0  0  0  0  0  0  0  0  0  0  0  0
   59.5030   74.0240   90.7760 C   0  0  0  0  0  0  0  0  0  0  0  0
   60.6190   73.2010   90.9460 C   0  0  0  0  0  0  0  0  0  0  0  0
   61.1720   72.5210   89.8520 C   0  0  0  0  0  0  0  0  0  0  0  0
   62.2850   71.6960   90.0080 C   0  0  0  0  0  0  0  0  0  0  0  0
   62.8740   71.5320   91.2640 C   0  0  0  0  0  0  0  0  0  0  0  0
   63.9950   70.7050   91.4330 C   0  0  0  0  0  0  0  0  0  0  0  0
   64.5770   70.5470   92.6880 C   0  0  0  0  0  0  0  0  0  0  0  0
   64.0450   71.2120   93.7910 C   0  0  0  0  0  0  0  0  0  0  0  0
   62.9250   72.0450   93.6490 C   0  0  0  0  0  0  0  0  0  0  0  0
   62.3830   72.7170   94.7440 C   0  0  0  0  0  0  0  0  0  0  0  0
   61.2670   73.5440   94.5910 C   0  0  0  0  0  0  0  0  0  0  0  0
   60.6360   73.7420   93.3400 C   0  0  0  0  0  0  0  0  0  0  0  0
   61.1920   73.0560   92.2280 C   0  0  0  0  0  0  0  0  0  0  0  0
   62.3290   72.2120   92.3810 C   0  0  0  0  0  0  0  0  0  0  0  0
   56.3341   76.8688   92.4803 H   0  0  0  0  0  0  0  0  0  0  0  0
   57.2677   76.6792   94.7820 H   0  0  0  0  0  0  0  0  0  0  0  0
   59.2462   75.2472   95.2069 H   0  0  0  0  0  0  0  0  0  0  0  0
   57.3947   75.6157   90.6125 H   0  0  0  0  0  0  0  0  0  0  0  0
   59.0625   74.1316   89.7738 H   0  0  0  0  0  0  0  0  0  0  0  0
   60.7211   72.6401   88.8557 H   0  0  0  0  0  0  0  0  0  0  0  0
   62.7021   71.1707   89.1362 H   0  0  0  0  0  0  0  0  0  0  0  0
   64.4179   70.1766   90.5659 H   0  0  0  0  0  0  0  0  0  0  0  0
   65.4565   69.8974   92.8088 H   0  0  0  0  0  0  0  0  0  0  0  0
   64.5069   71.0828   94.7809 H   0  0  0  0  0  0  0  0  0  0  0  0
   62.8383   72.5950   95.7379 H   0  0  0  0  0  0  0  0  0  0  0  0
   60.8644   74.0598   95.4752 H   0  0  0  0  0  0  0  0  0  0  0  0
  1  2  2  0
  2  3  1  0
  3  4  2  0
  4  5  1  0
  5  6  2  0
  5  7  1  0
  7  8  2  0
  8  9  1  0
  9 10  2  0
 10 11  1  0
 11 12  2  0
 12 13  1  0
 13 14  2  0
 14 15  1  0
 15 16  2  0
 16 17  1  0
 17 18  2  0
 18 19  1  0
 19 20  2  0
  6  1  1  0
 19  8  1  0
 18  4  1  0
 20 11  1  0
 20 15  1  0
  1 21  1  0
  2 22  1  0
  3 23  1  0
  6 24  1  0
  7 25  1  0
  9 26  1  0
 10 27  1  0
 12 28  1  0
 13 29  1  0
 14 30  1  0
 16 31  1  0
 17 32  1  0
M  END
>  <meeko>  (1) 
{"is_sidechain": [false], "free_energy": -8.595, "intermolecular_energy": -8.595, "internal_energy": 0.0}

$$$$
PahS_benzo_a_pyrene_out_p36
     RDKit          3D

 32 36  0  0  0  0  0  0  0  0999 V2000
   65.0000   69.2490   91.7700 C   0  0  0  0  0  0  0  0  0  0  0  0
   64.8930   69.7280   93.0650 C   0  0  0  0  0  0  0  0  0  0  0  0
   63.9750   70.7420   93.3600 C   0  0  0  0  0  0  0  0  0  0  0  0
   63.1310   71.3130   92.3710 C   0  0  0  0  0  0  0  0  0  0  0  0
   63.2630   70.8030   91.0560 C   0  0  0  0  0  0  0  0  0  0  0  0
   64.1900   69.7840   90.7720 C   0  0  0  0  0  0  0  0  0  0  0  0
   62.4670   71.3150   90.0260 C   0  0  0  0  0  0  0  0  0  0  0  0
   61.5320   72.3260   90.2570 C   0  0  0  0  0  0  0  0  0  0  0  0
   60.7470   72.8200   89.2050 C   0  0  0  0  0  0  0  0  0  0  0  0
   59.8110   73.8300   89.4230 C   0  0  0  0  0  0  0  0  0  0  0  0
   59.6370   74.3720   90.7000 C   0  0  0  0  0  0  0  0  0  0  0  0
   58.6980   75.3880   90.9310 C   0  0  0  0  0  0  0  0  0  0  0  0
   58.5300   75.9230   92.2050 C   0  0  0  0  0  0  0  0  0  0  0  0
   59.3000   75.4480   93.2660 C   0  0  0  0  0  0  0  0  0  0  0  0
   60.2450   74.4320   93.0620 C   0  0  0  0  0  0  0  0  0  0  0  0
   61.0220   73.9480   94.1140 C   0  0  0  0  0  0  0  0  0  0  0  0
   61.9610   72.9360   93.9000 C   0  0  0  0  0  0  0  0  0  0  0  0
   62.1730   72.3560   92.6260 C   0  0  0  0  0  0  0  0  0  0  0  0
   61.3800   72.8530   91.5580 C   0  0  0  0  0  0  0  0  0  0  0  0
   60.4220   73.8840   91.7730 C   0  0  0  0  0  0  0  0  0  0  0  0
   65.7196   68.4518   91.5317 H   0  0  0  0  0  0  0  0  0  0  0  0
   65.5287   69.3120   93.8605 H   0  0  0  0  0  0  0  0  0  0  0  0
   63.9046   71.1097   94.3943 H   0  0  0  0  0  0  0  0  0  0  0  0
   64.2765   69.4032   89.7436 H   0  0  0  0  0  0  0  0  0  0  0  0
   62.5804   70.9113   89.0091 H   0  0  0  0  0  0  0  0  0  0  0  0
   60.8715   72.4049   88.1940 H   0  0  0  0  0  0  0  0  0  0  0  0
   59.2050   74.2032   88.5842 H   0  0  0  0  0  0  0  0  0  0  0  0
   58.0883   75.7658   90.0970 H   0  0  0  0  0  0  0  0  0  0  0  0
   57.7906   76.7196   92.3746 H   0  0  0  0  0  0  0  0  0  0  0  0
   59.1651   75.8737   94.2713 H   0  0  0  0  0  0  0  0  0  0  0  0
   60.8942   74.3674   95.1228 H   0  0  0  0  0  0  0  0  0  0  0  0
   62.5570   72.5769   94.7519 H   0  0  0  0  0  0  0  0  0  0  0  0
  1  2  2  0
  2  3  1  0
  3  4  2  0
  4  5  1  0
  5  6  2  0
  5  7  1  0
  7  8  2  0
  8  9  1  0
  9 10  2  0
 10 11  1  0
 11 12  2  0
 12 13  1  0
 13 14  2  0
 14 15  1  0
 15 16  2  0
 16 17  1  0
 17 18  2  0
 18 19  1  0
 19 20  2  0
  6  1  1  0
 19  8  1  0
 18  4  1  0
 20 11  1  0
 20 15  1  0
  1 21  1  0
  2 22  1  0
  3 23  1  0
  6 24  1  0
  7 25  1  0
  9 26  1  0
 10 27  1  0
 12 28  1  0
 13 29  1  0
 14 30  1  0
 16 31  1  0
 17 32  1  0
M  END
>  <meeko>  (2) 
{"is_sidechain": [false], "free_energy": -8.54, "intermolecular_energy": -8.54, "internal_energy": 0.0}

$$$$
PahS_benzo_a_pyrene_out_p36
     RDKit          3D

 32 36  0  0  0  0  0  0  0  0999 V2000
   58.1410   76.8440   93.1040 C   0  0  0  0  0  0  0  0  0  0  0  0
   57.6700   76.1450   92.0040 C   0  0  0  0  0  0  0  0  0  0  0  0
   58.3300   74.9870   91.5800 C   0  0  0  0  0  0  0  0  0  0  0  0
   59.4830   74.4850   92.2390 C   0  0  0  0  0  0  0  0  0  0  0  0
   59.9410   75.2200   93.3610 C   0  0  0  0  0  0  0  0  0  0  0  0
   59.2690   76.3840   93.7770 C   0  0  0  0  0  0  0  0  0  0  0  0
   61.0710   74.7910   94.0640 C   0  0  0  0  0  0  0  0  0  0  0  0
   61.7720   73.6420   93.6900 C   0  0  0  0  0  0  0  0  0  0  0  0
   62.9020   73.2340   94.4130 C   0  0  0  0  0  0  0  0  0  0  0  0
   63.6110   72.0900   94.0490 C   0  0  0  0  0  0  0  0  0  0  0  0
   63.2060   71.3240   92.9520 C   0  0  0  0  0  0  0  0  0  0  0  0
   63.9110   70.1710   92.5780 C   0  0  0  0  0  0  0  0  0  0  0  0
   63.5020   69.4130   91.4840 C   0  0  0  0  0  0  0  0  0  0  0  0
   62.3820   69.8000   90.7500 C   0  0  0  0  0  0  0  0  0  0  0  0
   61.6590   70.9480   91.1030 C   0  0  0  0  0  0  0  0  0  0  0  0
   60.5370   71.3460   90.3770 C   0  0  0  0  0  0  0  0  0  0  0  0
   59.8250   72.4930   90.7390 C   0  0  0  0  0  0  0  0  0  0  0  0
   60.1950   73.3000   91.8400 C   0  0  0  0  0  0  0  0  0  0  0  0
   61.3380   72.8900   92.5770 C   0  0  0  0  0  0  0  0  0  0  0  0
   62.0670   71.7220   92.2110 C   0  0  0  0  0  0  0  0  0  0  0  0
   57.6271   77.7557   93.4427 H   0  0  0  0  0  0  0  0  0  0  0  0
   56.7790   76.5001   91.4655 H   0  0  0  0  0  0  0  0  0  0  0  0
   57.9418   74.4458   90.7045 H   0  0  0  0  0  0  0  0  0  0  0  0
   59.6418   76.9403   94.6497 H   0  0  0  0  0  0  0  0  0  0  0  0
   61.4161   75.3720   94.9320 H   0  0  0  0  0  0  0  0  0  0  0  0
   63.2338   73.8248   95.2795 H   0  0  0  0  0  0  0  0  0  0  0  0
   64.4954   71.7880   94.6292 H   0  0  0  0  0  0  0  0  0  0  0  0
   64.7956   69.8624   93.1544 H   0  0  0  0  0  0  0  0  0  0  0  0
   64.0620   68.5100   91.1993 H   0  0  0  0  0  0  0  0  0  0  0  0
   62.0625   69.1991   89.8858 H   0  0  0  0  0  0  0  0  0  0  0  0
   60.2092   70.7517   89.5113 H   0  0  0  0  0  0  0  0  0  0  0  0
   58.9440   72.7787   90.1455 H   0  0  0  0  0  0  0  0  0  0  0  0
  1  2  2  0
  2  3  1  0
  3  4  2  0
  4  5  1  0
  5  6  2  0
  5  7  1  0
  7  8  2  0
  8  9  1  0
  9 10  2  0
 10 11  1  0
 11 12  2  0
 12 13  1  0
 13 14  2  0
 14 15  1  0
 15 16  2  0
 16 17  1  0
 17 18  2  0
 18 19  1  0
 19 20  2  0
  6  1  1  0
 19  8  1  0
 18  4  1  0
 20 11  1  0
 20 15  1  0
  1 21  1  0
  2 22  1  0
  3 23  1  0
  6 24  1  0
  7 25  1  0
  9 26  1  0
 10 27  1  0
 12 28  1  0
 13 29  1  0
 14 30  1  0
 16 31  1  0
 17 32  1  0
M  END
>  <meeko>  (3) 
{"is_sidechain": [false], "free_energy": -8.483, "intermolecular_energy": -8.483, "internal_energy": 0.0}

$$$$
PahS_benzo_a_pyrene_out_p36
     RDKit          3D

 32 36  0  0  0  0  0  0  0  0999 V2000
   63.9640   67.9220   91.8980 C   0  0  0  0  0  0  0  0  0  0  0  0
   62.9030   67.8620   91.0090 C   0  0  0  0  0  0  0  0  0  0  0  0
   62.1420   69.0070   90.7530 C   0  0  0  0  0  0  0  0  0  0  0  0
   62.4150   70.2540   91.3740 C   0  0  0  0  0  0  0  0  0  0  0  0
   63.5060   70.2860   92.2780 C   0  0  0  0  0  0  0  0  0  0  0  0
   64.2620   69.1270   92.5280 C   0  0  0  0  0  0  0  0  0  0  0  0
   63.8370   71.4770   92.9320 C   0  0  0  0  0  0  0  0  0  0  0  0
   63.1160   72.6540   92.7170 C   0  0  0  0  0  0  0  0  0  0  0  0
   63.4710   73.8340   93.3860 C   0  0  0  0  0  0  0  0  0  0  0  0
   62.7590   75.0160   93.1810 C   0  0  0  0  0  0  0  0  0  0  0  0
   61.6740   75.0450   92.3000 C   0  0  0  0  0  0  0  0  0  0  0  0
   60.9510   76.2280   92.0860 C   0  0  0  0  0  0  0  0  0  0  0  0
   59.8700   76.2500   91.2080 C   0  0  0  0  0  0  0  0  0  0  0  0
   59.4990   75.0880   90.5330 C   0  0  0  0  0  0  0  0  0  0  0  0
   60.2060   73.8930   90.7290 C   0  0  0  0  0  0  0  0  0  0  0  0
   59.8450   72.7240   90.0600 C   0  0  0  0  0  0  0  0  0  0  0  0
   60.5560   71.5380   90.2630 C   0  0  0  0  0  0  0  0  0  0  0  0
   61.6610   71.4580   91.1430 C   0  0  0  0  0  0  0  0  0  0  0  0
   62.0250   72.6510   91.8220 C   0  0  0  0  0  0  0  0  0  0  0  0
   61.3020   73.8620   91.6170 C   0  0  0  0  0  0  0  0  0  0  0  0
   64.5660   67.0247   92.1043 H   0  0  0  0  0  0  0  0  0  0  0  0
   62.6595   66.9149   90.5052 H   0  0  0  0  0  0  0  0  0  0  0  0
   61.3024   68.9390   90.0456 H   0  0  0  0  0  0  0  0  0  0  0  0
   65.1041   69.1734   93.2342 H   0  0  0  0  0  0  0  0  0  0  0  0
   64.6852   71.4872   93.6323 H   0  0  0  0  0  0  0  0  0  0  0  0
   64.3227   73.8276   94.0821 H   0  0  0  0  0  0  0  0  0  0  0  0
   63.0532   75.9310   93.7160 H   0  0  0  0  0  0  0  0  0  0  0  0
   61.2406   77.1470   92.6167 H   0  0  0  0  0  0  0  0  0  0  0  0
   59.3098   77.1829   91.0474 H   0  0  0  0  0  0  0  0  0  0  0  0
   58.6444   75.1087   89.8408 H   0  0  0  0  0  0  0  0  0  0  0  0
   58.9920   72.7354   89.3655 H   0  0  0  0  0  0  0  0  0  0  0  0
   60.2452   70.6339   89.7189 H   0  0  0  0  0  0  0  0  0  0  0  0
  1  2  2  0
  2  3  1  0
  3  4  2  0
  4  5  1  0
  5  6  2  0
  5  7  1  0
  7  8  2  0
  8  9  1  0
  9 10  2  0
 10 11  1  0
 11 12  2  0
 12 13  1  0
 13 14  2  0
 14 15  1  0
 15 16  2  0
 16 17  1  0
 17 18  2  0
 18 19  1  0
 19 20  2  0
  6  1  1  0
 19  8  1  0
 18  4  1  0
 20 11  1  0
 20 15  1  0
  1 21  1  0
  2 22  1  0
  3 23  1  0
  6 24  1  0
  7 25  1  0
  9 26  1  0
 10 27  1  0
 12 28  1  0
 13 29  1  0
 14 30  1  0
 16 31  1  0
 17 32  1  0
M  END
>  <meeko>  (4) 
{"is_sidechain": [false], "free_energy": -8.448, "intermolecular_energy": -8.448, "internal_energy": 0.0}

$$$$
PahS_benzo_a_pyrene_out_p36
     RDKit          3D

 32 36  0  0  0  0  0  0  0  0999 V2000
   57.0950   76.2400   93.2710 C   0  0  0  0  0  0  0  0  0  0  0  0
   57.9800   77.0250   93.9920 C   0  0  0  0  0  0  0  0  0  0  0  0
   59.3560   76.9060   93.7720 C   0  0  0  0  0  0  0  0  0  0  0  0
   59.8980   76.0000   92.8230 C   0  0  0  0  0  0  0  0  0  0  0  0
   58.9690   75.2110   92.1000 C   0  0  0  0  0  0  0  0  0  0  0  0
   57.5880   75.3390   92.3310 C   0  0  0  0  0  0  0  0  0  0  0  0
   59.4240   74.2940   91.1480 C   0  0  0  0  0  0  0  0  0  0  0  0
   60.7860   74.1300   90.8820 C   0  0  0  0  0  0  0  0  0  0  0  0
   61.2150   73.2030   89.9210 C   0  0  0  0  0  0  0  0  0  0  0  0
   62.5710   73.0300   89.6470 C   0  0  0  0  0  0  0  0  0  0  0  0
   63.5330   73.7810   90.3290 C   0  0  0  0  0  0  0  0  0  0  0  0
   64.9000   73.6150   90.0610 C   0  0  0  0  0  0  0  0  0  0  0  0
   65.8530   74.3660   90.7440 C   0  0  0  0  0  0  0  0  0  0  0  0
   65.4500   75.2930   91.7040 C   0  0  0  0  0  0  0  0  0  0  0  0
   64.0900   75.4790   91.9900 C   0  0  0  0  0  0  0  0  0  0  0  0
   63.6730   76.4020   92.9480 C   0  0  0  0  0  0  0  0  0  0  0  0
   62.3150   76.5780   93.2250 C   0  0  0  0  0  0  0  0  0  0  0  0
   61.3040   75.8430   92.5620 C   0  0  0  0  0  0  0  0  0  0  0  0
   61.7330   74.9030   91.5870 C   0  0  0  0  0  0  0  0  0  0  0  0
   63.1170   74.7210   91.3030 C   0  0  0  0  0  0  0  0  0  0  0  0
   56.0116   76.3278   93.4398 H   0  0  0  0  0  0  0  0  0  0  0  0
   57.6010   77.7408   94.7363 H   0  0  0  0  0  0  0  0  0  0  0  0
   60.0428   77.5370   94.3552 H   0  0  0  0  0  0  0  0  0  0  0  0
   56.8846   74.7162   91.7589 H   0  0  0  0  0  0  0  0  0  0  0  0
   58.6922   73.6869   90.5949 H   0  0  0  0  0  0  0  0  0  0  0  0
   60.4710   72.6039   89.3756 H   0  0  0  0  0  0  0  0  0  0  0  0
   62.8861   72.2977   88.8891 H   0  0  0  0  0  0  0  0  0  0  0  0
   65.2220   72.8846   89.3041 H   0  0  0  0  0  0  0  0  0  0  0  0
   66.9224   74.2280   90.5264 H   0  0  0  0  0  0  0  0  0  0  0  0
   66.2058   75.8839   92.2421 H   0  0  0  0  0  0  0  0  0  0  0  0
   64.4210   76.9979   93.4915 H   0  0  0  0  0  0  0  0  0  0  0  0
   62.0209   77.3152   93.9866 H   0  0  0  0  0  0  0  0  0  0  0  0
  1  2  2  0
  2  3  1  0
  3  4  2  0
  4  5  1  0
  5  6  2  0
  5  7  1  0
  7  8  2  0
  8  9  1  0
  9 10  2  0
 10 11  1  0
 11 12  2  0
 12 13  1  0
 13 14  2  0
 14 15  1  0
 15 16  2  0
 16 17  1  0
 17 18  2  0
 18 19  1  0
 19 20  2  0
  6  1  1  0
 19  8  1  0
 18  4  1  0
 20 11  1  0
 20 15  1  0
  1 21  1  0
  2 22  1  0
  3 23  1  0
  6 24  1  0
  7 25  1  0
  9 26  1  0
 10 27  1  0
 12 28  1  0
 13 29  1  0
 14 30  1  0
 16 31  1  0
 17 32  1  0
M  END
>  <meeko>  (5) 
{"is_sidechain": [false], "free_energy": -8.425, "intermolecular_energy": -8.425, "internal_energy": 0.0}

$$$$
PahS_benzo_a_pyrene_out_p36
     RDKit          3D

 32 36  0  0  0  0  0  0  0  0999 V2000
   58.7600   75.5210   91.7540 C   0  0  0  0  0  0  0  0  0  0  0  0
   59.4910   75.9720   92.8410 C   0  0  0  0  0  0  0  0  0  0  0  0
   60.5670   75.2170   93.3190 C   0  0  0  0  0  0  0  0  0  0  0  0
   60.9510   73.9850   92.7280 C   0  0  0  0  0  0  0  0  0  0  0  0
   60.1860   73.5490   91.6180 C   0  0  0  0  0  0  0  0  0  0  0  0
   59.1060   74.3170   91.1480 C   0  0  0  0  0  0  0  0  0  0  0  0
   60.5010   72.3440   90.9820 C   0  0  0  0  0  0  0  0  0  0  0  0
   61.5640   71.5460   91.4120 C   0  0  0  0  0  0  0  0  0  0  0  0
   61.8580   70.3430   90.7550 C   0  0  0  0  0  0  0  0  0  0  0  0
   62.9160   69.5370   91.1740 C   0  0  0  0  0  0  0  0  0  0  0  0
   63.7060   69.9160   92.2630 C   0  0  0  0  0  0  0  0  0  0  0  0
   64.7730   69.1130   92.6940 C   0  0  0  0  0  0  0  0  0  0  0  0
   65.5560   69.4970   93.7790 C   0  0  0  0  0  0  0  0  0  0  0  0
   65.2820   70.6880   94.4480 C   0  0  0  0  0  0  0  0  0  0  0  0
   64.2220   71.5090   94.0380 C   0  0  0  0  0  0  0  0  0  0  0  0
   63.9370   72.7040   94.6980 C   0  0  0  0  0  0  0  0  0  0  0  0
   62.8770   73.5140   94.2800 C   0  0  0  0  0  0  0  0  0  0  0  0
   62.0490   73.1740   93.1840 C   0  0  0  0  0  0  0  0  0  0  0  0
   62.3440   71.9560   92.5140 C   0  0  0  0  0  0  0  0  0  0  0  0
   63.4230   71.1280   92.9380 C   0  0  0  0  0  0  0  0  0  0  0  0
   57.9127   76.1100   91.3729 H   0  0  0  0  0  0  0  0  0  0  0  0
   59.2256   76.9223   93.3273 H   0  0  0  0  0  0  0  0  0  0  0  0
   61.1355   75.5911   94.1832 H   0  0  0  0  0  0  0  0  0  0  0  0
   58.5240   73.9596   90.2857 H   0  0  0  0  0  0  0  0  0  0  0  0
   59.8974   72.0167   90.1226 H   0  0  0  0  0  0  0  0  0  0  0  0
   61.2453   70.0304   89.8966 H   0  0  0  0  0  0  0  0  0  0  0  0
   63.1302   68.5971   90.6442 H   0  0  0  0  0  0  0  0  0  0  0  0
   64.9927   68.1713   92.1696 H   0  0  0  0  0  0  0  0  0  0  0  0
   66.3906   68.8605   94.1080 H   0  0  0  0  0  0  0  0  0  0  0  0
   65.9028   70.9869   95.3055 H   0  0  0  0  0  0  0  0  0  0  0  0
   64.5524   73.0123   95.5560 H   0  0  0  0  0  0  0  0  0  0  0  0
   62.6793   74.4500   94.8230 H   0  0  0  0  0  0  0  0  0  0  0  0
  1  2  2  0
  2  3  1  0
  3  4  2  0
  4  5  1  0
  5  6  2  0
  5  7  1  0
  7  8  2  0
  8  9  1  0
  9 10  2  0
 10 11  1  0
 11 12  2  0
 12 13  1  0
 13 14  2  0
 14 15  1  0
 15 16  2  0
 16 17  1  0
 17 18  2  0
 18 19  1  0
 19 20  2  0
  6  1  1  0
 19  8  1  0
 18  4  1  0
 20 11  1  0
 20 15  1  0
  1 21  1  0
  2 22  1  0
  3 23  1  0
  6 24  1  0
  7 25  1  0
  9 26  1  0
 10 27  1  0
 12 28  1  0
 13 29  1  0
 14 30  1  0
 16 31  1  0
 17 32  1  0
M  END
>  <meeko>  (6) 
{"is_sidechain": [false], "free_energy": -8.411, "intermolecular_energy": -8.411, "internal_energy": 0.0}

$$$$
PahS_benzo_a_pyrene_out_p36
     RDKit          3D

 32 36  0  0  0  0  0  0  0  0999 V2000
   57.2460   76.4500   93.4450 C   0  0  0  0  0  0  0  0  0  0  0  0
   57.1270   75.4950   92.4480 C   0  0  0  0  0  0  0  0  0  0  0  0
   58.2730   74.9890   91.8270 C   0  0  0  0  0  0  0  0  0  0  0  0
   59.5800   75.4170   92.1810 C   0  0  0  0  0  0  0  0  0  0  0  0
   59.6710   76.3930   93.2040 C   0  0  0  0  0  0  0  0  0  0  0  0
   58.5110   76.8950   93.8200 C   0  0  0  0  0  0  0  0  0  0  0  0
   60.9230   76.8660   93.6080 C   0  0  0  0  0  0  0  0  0  0  0  0
   62.1050   76.3990   93.0280 C   0  0  0  0  0  0  0  0  0  0  0  0
   63.3470   76.8900   93.4530 C   0  0  0  0  0  0  0  0  0  0  0  0
   64.5330   76.4330   92.8810 C   0  0  0  0  0  0  0  0  0  0  0  0
   64.5060   75.4700   91.8680 C   0  0  0  0  0  0  0  0  0  0  0  0
   65.6930   75.0020   91.2850 C   0  0  0  0  0  0  0  0  0  0  0  0
   65.6580   74.0430   90.2760 C   0  0  0  0  0  0  0  0  0  0  0  0
   64.4340   73.5400   89.8360 C   0  0  0  0  0  0  0  0  0  0  0  0
   63.2330   73.9910   90.4020 C   0  0  0  0  0  0  0  0  0  0  0  0
   62.0020   73.4960   89.9720 C   0  0  0  0  0  0  0  0  0  0  0  0
   60.8110   73.9530   90.5430 C   0  0  0  0  0  0  0  0  0  0  0  0
   60.7880   74.9250   91.5710 C   0  0  0  0  0  0  0  0  0  0  0  0
   62.0440   75.4260   92.0060 C   0  0  0  0  0  0  0  0  0  0  0  0
   63.2590   74.9630   91.4260 C   0  0  0  0  0  0  0  0  0  0  0  0
   56.3483   76.8533   93.9363 H   0  0  0  0  0  0  0  0  0  0  0  0
   56.1324   75.1355   92.1455 H   0  0  0  0  0  0  0  0  0  0  0  0
   58.1582   74.2328   91.0365 H   0  0  0  0  0  0  0  0  0  0  0  0
   58.6045   77.6526   94.6121 H   0  0  0  0  0  0  0  0  0  0  0  0
   60.9788   77.6248   94.4024 H   0  0  0  0  0  0  0  0  0  0  0  0
   63.3864   77.6473   94.2498 H   0  0  0  0  0  0  0  0  0  0  0  0
   65.4969   76.8328   93.2290 H   0  0  0  0  0  0  0  0  0  0  0  0
   66.6608   75.3964   91.6282 H   0  0  0  0  0  0  0  0  0  0  0  0
   66.5950   73.6825   89.8264 H   0  0  0  0  0  0  0  0  0  0  0  0
   64.4105   72.7831   89.0382 H   0  0  0  0  0  0  0  0  0  0  0  0
   61.9682   72.7382   89.1754 H   0  0  0  0  0  0  0  0  0  0  0  0
   59.8572   73.5423   90.1802 H   0  0  0  0  0  0  0  0  0  0  0  0
  1  2  2  0
  2  3  1  0
  3  4  2  0
  4  5  1  0
  5  6  2  0
  5  7  1  0
  7  8  2  0
  8  9  1  0
  9 10  2  0
 10 11  1  0
 11 12  2  0
 12 13  1  0
 13 14  2  0
 14 15  1  0
 15 16  2  0
 16 17  1  0
 17 18  2  0
 18 19  1  0
 19 20  2  0
  6  1  1  0
 19  8  1  0
 18  4  1  0
 20 11  1  0
 20 15  1  0
  1 21  1  0
  2 22  1  0
  3 23  1  0
  6 24  1  0
  7 25  1  0
  9 26  1  0
 10 27  1  0
 12 28  1  0
 13 29  1  0
 14 30  1  0
 16 31  1  0
 17 32  1  0
M  END
>  <meeko>  (7) 
{"is_sidechain": [false], "free_energy": -8.236, "intermolecular_energy": -8.236, "internal_energy": 0.0}

$$$$
PahS_benzo_a_pyrene_out_p36
     RDKit          3D

 32 36  0  0  0  0  0  0  0  0999 V2000
   66.1550   74.2220   90.2850 C   0  0  0  0  0  0  0  0  0  0  0  0
   66.2630   75.2640   91.1920 C   0  0  0  0  0  0  0  0  0  0  0  0
   65.1160   75.7700   91.8110 C   0  0  0  0  0  0  0  0  0  0  0  0
   63.8200   75.2540   91.5480 C   0  0  0  0  0  0  0  0  0  0  0  0
   63.7400   74.1890   90.6170 C   0  0  0  0  0  0  0  0  0  0  0  0
   64.9010   73.6890   90.0000 C   0  0  0  0  0  0  0  0  0  0  0  0
   62.4990   73.6260   90.3030 C   0  0  0  0  0  0  0  0  0  0  0  0
   61.3170   74.0880   90.8890 C   0  0  0  0  0  0  0  0  0  0  0  0
   60.0860   73.5060   90.5570 C   0  0  0  0  0  0  0  0  0  0  0  0
   58.9000   73.9580   91.1340 C   0  0  0  0  0  0  0  0  0  0  0  0
   58.9170   75.0050   92.0590 C   0  0  0  0  0  0  0  0  0  0  0  0
   57.7300   75.4680   92.6460 C   0  0  0  0  0  0  0  0  0  0  0  0
   57.7540   76.5120   93.5670 C   0  0  0  0  0  0  0  0  0  0  0  0
   58.9660   77.1070   93.9120 C   0  0  0  0  0  0  0  0  0  0  0  0
   60.1670   76.6630   93.3400 C   0  0  0  0  0  0  0  0  0  0  0  0
   61.3870   77.2500   93.6770 C   0  0  0  0  0  0  0  0  0  0  0  0
   62.5770   76.7990   93.1000 C   0  0  0  0  0  0  0  0  0  0  0  0
   62.6120   75.7420   92.1600 C   0  0  0  0  0  0  0  0  0  0  0  0
   61.3670   75.1480   91.8200 C   0  0  0  0  0  0  0  0  0  0  0  0
   60.1520   75.6050   92.4060 C   0  0  0  0  0  0  0  0  0  0  0  0
   67.0531   73.8191   89.7940 H   0  0  0  0  0  0  0  0  0  0  0  0
   67.2492   75.6922   91.4245 H   0  0  0  0  0  0  0  0  0  0  0  0
   65.2217   76.5978   92.5276 H   0  0  0  0  0  0  0  0  0  0  0  0
   64.8165   72.8621   89.2795 H   0  0  0  0  0  0  0  0  0  0  0  0
   62.4519   72.8002   89.5779 H   0  0  0  0  0  0  0  0  0  0  0  0
   60.0551   72.6805   89.8306 H   0  0  0  0  0  0  0  0  0  0  0  0
   57.9446   73.4872   90.8592 H   0  0  0  0  0  0  0  0  0  0  0  0
   56.7710   75.0018   92.3761 H   0  0  0  0  0  0  0  0  0  0  0  0
   56.8173   76.8667   94.0218 H   0  0  0  0  0  0  0  0  0  0  0  0
   58.9808   77.9321   94.6393 H   0  0  0  0  0  0  0  0  0  0  0  0
   61.4123   78.0754   94.4036 H   0  0  0  0  0  0  0  0  0  0  0  0
   63.5217   77.2837   93.3872 H   0  0  0  0  0  0  0  0  0  0  0  0
  1  2  2  0
  2  3  1  0
  3  4  2  0
  4  5  1  0
  5  6  2  0
  5  7  1  0
  7  8  2  0
  8  9  1  0
  9 10  2  0
 10 11  1  0
 11 12  2  0
 12 13  1  0
 13 14  2  0
 14 15  1  0
 15 16  2  0
 16 17  1  0
 17 18  2  0
 18 19  1  0
 19 20  2  0
  6  1  1  0
 19  8  1  0
 18  4  1  0
 20 11  1  0
 20 15  1  0
  1 21  1  0
  2 22  1  0
  3 23  1  0
  6 24  1  0
  7 25  1  0
  9 26  1  0
 10 27  1  0
 12 28  1  0
 13 29  1  0
 14 30  1  0
 16 31  1  0
 17 32  1  0
M  END
>  <meeko>  (8) 
{"is_sidechain": [false], "free_energy": -8.04, "intermolecular_energy": -8.04, "internal_energy": 0.0}

$$$$
PahS_benzo_a_pyrene_out_p36
     RDKit          3D

 32 36  0  0  0  0  0  0  0  0999 V2000
   59.5850   74.5320   90.0180 C   0  0  0  0  0  0  0  0  0  0  0  0
   59.8980   73.5090   89.1380 C   0  0  0  0  0  0  0  0  0  0  0  0
   60.8310   72.5340   89.5060 C   0  0  0  0  0  0  0  0  0  0  0  0
   61.4850   72.5460   90.7660 C   0  0  0  0  0  0  0  0  0  0  0  0
   61.1450   73.6040   91.6450 C   0  0  0  0  0  0  0  0  0  0  0  0
   60.2060   74.5790   91.2630 C   0  0  0  0  0  0  0  0  0  0  0  0
   61.7470   73.6860   92.9050 C   0  0  0  0  0  0  0  0  0  0  0  0
   62.6850   72.7430   93.3310 C   0  0  0  0  0  0  0  0  0  0  0  0
   63.2730   72.8490   94.5990 C   0  0  0  0  0  0  0  0  0  0  0  0
   64.2110   71.9140   95.0350 C   0  0  0  0  0  0  0  0  0  0  0  0
   64.5850   70.8490   94.2120 C   0  0  0  0  0  0  0  0  0  0  0  0
   65.5270   69.9020   94.6400 C   0  0  0  0  0  0  0  0  0  0  0  0
   65.8950   68.8430   93.8140 C   0  0  0  0  0  0  0  0  0  0  0  0
   65.3250   68.7170   92.5490 C   0  0  0  0  0  0  0  0  0  0  0  0
   64.3800   69.6500   92.0960 C   0  0  0  0  0  0  0  0  0  0  0  0
   63.8020   69.5360   90.8320 C   0  0  0  0  0  0  0  0  0  0  0  0
   62.8610   70.4710   90.3920 C   0  0  0  0  0  0  0  0  0  0  0  0
   62.4500   71.5660   91.1890 C   0  0  0  0  0  0  0  0  0  0  0  0
   63.0420   71.6780   92.4750 C   0  0  0  0  0  0  0  0  0  0  0  0
   64.0010   70.7260   92.9270 C   0  0  0  0  0  0  0  0  0  0  0  0
   58.8514   75.3013   89.7352 H   0  0  0  0  0  0  0  0  0  0  0  0
   59.4136   73.4635   88.1514 H   0  0  0  0  0  0  0  0  0  0  0  0
   61.0663   71.7294   88.7938 H   0  0  0  0  0  0  0  0  0  0  0  0
   59.9580   75.3929   91.9602 H   0  0  0  0  0  0  0  0  0  0  0  0
   61.4750   74.5135   93.5768 H   0  0  0  0  0  0  0  0  0  0  0  0
   62.9904   73.6819   95.2597 H   0  0  0  0  0  0  0  0  0  0  0  0
   64.6597   72.0157   96.0342 H   0  0  0  0  0  0  0  0  0  0  0  0
   65.9796   69.9968   95.6381 H   0  0  0  0  0  0  0  0  0  0  0  0
   66.6352   68.1065   94.1600 H   0  0  0  0  0  0  0  0  0  0  0  0
   65.6183   67.8789   91.8998 H   0  0  0  0  0  0  0  0  0  0  0  0
   64.0895   68.7020   90.1749 H   0  0  0  0  0  0  0  0  0  0  0  0
   62.4239   70.3515   89.3897 H   0  0  0  0  0  0  0  0  0  0  0  0
  1  2  2  0
  2  3  1  0
  3  4  2  0
  4  5  1  0
  5  6  2  0
  5  7  1  0
  7  8  2  0
  8  9  1  0
  9 10  2  0
 10 11  1  0
 11 12  2  0
 12 13  1  0
 13 14  2  0
 14 15  1  0
 15 16  2  0
 16 17  1  0
 17 18  2  0
 18 19  1  0
 19 20  2  0
  6  1  1  0
 19  8  1  0
 18  4  1  0
 20 11  1  0
 20 15  1  0
  1 21  1  0
  2 22  1  0
  3 23  1  0
  6 24  1  0
  7 25  1  0
  9 26  1  0
 10 27  1  0
 12 28  1  0
 13 29  1  0
 14 30  1  0
 16 31  1  0
 17 32  1  0
M  END
>  <meeko>  (9) 
{"is_sidechain": [false], "free_energy": -8.004, "intermolecular_energy": -8.004, "internal_energy": 0.0}

$$$$
