PahS_anthracene_out_p36
     RDKit          3D

 24 26  0  0  0  0  0  0  0  0999 V2000
   63.3620   64.9900   88.2680 C   0  0  0  0  0  0  0  0  0  0  0  0
   63.6100   66.3570   88.3410 C   0  0  0  0  0  0  0  0  0  0  0  0
   63.6410   67.1240   87.1740 C   0  0  0  0  0  0  0  0  0  0  0  0
   63.4260   66.5300   85.9190 C   0  0  0  0  0  0  0  0  0  0  0  0
   63.4540   67.2880   84.7370 C   0  0  0  0  0  0  0  0  0  0  0  0
   63.2390   66.6960   83.4820 C   0  0  0  0  0  0  0  0  0  0  0  0
   63.2670   67.4530   82.2980 C   0  0  0  0  0  0  0  0  0  0  0  0
   63.0500   66.8490   81.0590 C   0  0  0  0  0  0  0  0  0  0  0  0
   62.8030   65.4830   80.9850 C   0  0  0  0  0  0  0  0  0  0  0  0
   62.7710   64.7160   82.1520 C   0  0  0  0  0  0  0  0  0  0  0  0
   62.9870   65.3090   83.4080 C   0  0  0  0  0  0  0  0  0  0  0  0
   62.9580   64.5510   84.5900 C   0  0  0  0  0  0  0  0  0  0  0  0
   63.1740   65.1440   85.8450 C   0  0  0  0  0  0  0  0  0  0  0  0
   63.1460   64.3860   87.0280 C   0  0  0  0  0  0  0  0  0  0  0  0
   63.3361   64.3855   89.1866 H   0  0  0  0  0  0  0  0  0  0  0  0
   63.7816   66.8337   89.3174 H   0  0  0  0  0  0  0  0  0  0  0  0
   63.8358   68.2047   87.2382 H   0  0  0  0  0  0  0  0  0  0  0  0
   63.6486   68.3691   84.7956 H   0  0  0  0  0  0  0  0  0  0  0  0
   63.4623   68.5343   82.3487 H   0  0  0  0  0  0  0  0  0  0  0  0
   63.0744   67.4539   80.1406 H   0  0  0  0  0  0  0  0  0  0  0  0
   62.6329   65.0065   80.0083 H   0  0  0  0  0  0  0  0  0  0  0  0
   62.5745   63.6356   82.0874 H   0  0  0  0  0  0  0  0  0  0  0  0
   62.7620   63.4702   84.5318 H   0  0  0  0  0  0  0  0  0  0  0  0
   62.9517   63.3045   86.9764 H   0  0  0  0  0  0  0  0  0  0  0  0
  1  2  2  0
  2  3  1  0
  3  4  2  0
  4  5  1  0
  5  6  2  0
  6  7  1  0
  7  8  2  0
  8  9  1  0
  9 10  2  0
 10 11  1  0
 11 12  2  0
 12 13  1  0
 13 14  2  0
 14  1  1  0
 13  4  1  0
 11  6  1  0
  1 15  1  0
  2 16  1  0
  3 17  1  0
  5 18  1  0
  7 19  1  0
  8 20  1  0
  9 21  1  0
 10 22  1  0
 12 23  1  0
 14 24  1  0
M  END
>  <meeko>  (1) 
{"is_sidechain": [false], "free_energy": -7.909, "intermolecular_energy": -7.909, "internal_energy": 0.0}

$$$$
PahS_anthracene_out_p36
     RDKit          3D

 24 26  0  0  0  0  0  0  0  0999 V2000
   62.8110   65.5220   80.9970 C   0  0  0  0  0  0  0  0  0  0  0  0
   63.0400   66.8900   81.0970 C   0  0  0  0  0  0  0  0  0  0  0  0
   63.2470   67.4730   82.3490 C   0  0  0  0  0  0  0  0  0  0  0  0
   63.2270   66.6920   83.5170 C   0  0  0  0  0  0  0  0  0  0  0  0
   63.4340   67.2640   84.7830 C   0  0  0  0  0  0  0  0  0  0  0  0
   63.4140   66.4830   85.9510 C   0  0  0  0  0  0  0  0  0  0  0  0
   63.6210   67.0540   87.2180 C   0  0  0  0  0  0  0  0  0  0  0  0
   63.5990   66.2650   88.3690 C   0  0  0  0  0  0  0  0  0  0  0  0
   63.3700   64.8960   88.2690 C   0  0  0  0  0  0  0  0  0  0  0  0
   63.1630   64.3140   87.0170 C   0  0  0  0  0  0  0  0  0  0  0  0
   63.1830   65.0950   85.8490 C   0  0  0  0  0  0  0  0  0  0  0  0
   62.9760   64.5230   84.5830 C   0  0  0  0  0  0  0  0  0  0  0  0
   62.9960   65.3030   83.4150 C   0  0  0  0  0  0  0  0  0  0  0  0
   62.7890   64.7330   82.1480 C   0  0  0  0  0  0  0  0  0  0  0  0
   62.6473   65.0620   80.0113 H   0  0  0  0  0  0  0  0  0  0  0  0
   63.0581   67.5126   80.1903 H   0  0  0  0  0  0  0  0  0  0  0  0
   63.4277   68.5556   82.4217 H   0  0  0  0  0  0  0  0  0  0  0  0
   63.6156   68.3460   84.8618 H   0  0  0  0  0  0  0  0  0  0  0  0
   63.8025   68.1355   87.3037 H   0  0  0  0  0  0  0  0  0  0  0  0
   63.7626   66.7250   89.3547 H   0  0  0  0  0  0  0  0  0  0  0  0
   63.3521   64.2731   89.1755 H   0  0  0  0  0  0  0  0  0  0  0  0
   62.9821   63.2314   86.9440 H   0  0  0  0  0  0  0  0  0  0  0  0
   62.7943   63.4410   84.5045 H   0  0  0  0  0  0  0  0  0  0  0  0
   62.6073   63.6515   82.0619 H   0  0  0  0  0  0  0  0  0  0  0  0
  1  2  2  0
  2  3  1  0
  3  4  2  0
  4  5  1  0
  5  6  2  0
  6  7  1  0
  7  8  2  0
  8  9  1  0
  9 10  2  0
 10 11  1  0
 11 12  2  0
 12 13  1  0
 13 14  2  0
 14  1  1  0
 13  4  1  0
 11  6  1  0
  1 15  1  0
  2 16  1  0
  3 17  1  0
  5 18  1  0
  7 19  1  0
  8 20  1  0
  9 21  1  0
 10 22  1  0
 12 23  1  0
 14 24  1  0
M  END
>  <meeko>  (2) 
{"is_sidechain": [false], "free_energy": -7.889, "intermolecular_energy": -7.889, "internal_energy": 0.0}

$$$$
PahS_anthracene_out_p36
     RDKit          3D

 24 26  0  0  0  0  0  0  0  0999 V2000
   63.6280   66.2600   88.3790 C   0  0  0  0  0  0  0  0  0  0  0  0
   63.4130   64.8890   88.2840 C   0  0  0  0  0  0  0  0  0  0  0  0
   63.2020   64.3000   87.0360 C   0  0  0  0  0  0  0  0  0  0  0  0
   63.2040   65.0780   85.8650 C   0  0  0  0  0  0  0  0  0  0  0  0
   62.9940   64.5000   84.6030 C   0  0  0  0  0  0  0  0  0  0  0  0
   62.9960   65.2770   83.4320 C   0  0  0  0  0  0  0  0  0  0  0  0
   62.7860   64.7000   82.1680 C   0  0  0  0  0  0  0  0  0  0  0  0
   62.7920   65.4860   81.0150 C   0  0  0  0  0  0  0  0  0  0  0  0
   63.0060   66.8570   81.1090 C   0  0  0  0  0  0  0  0  0  0  0  0
   63.2170   67.4460   82.3580 C   0  0  0  0  0  0  0  0  0  0  0  0
   63.2150   66.6680   83.5280 C   0  0  0  0  0  0  0  0  0  0  0  0
   63.4250   67.2460   84.7910 C   0  0  0  0  0  0  0  0  0  0  0  0
   63.4240   66.4690   85.9610 C   0  0  0  0  0  0  0  0  0  0  0  0
   63.6330   67.0460   87.2250 C   0  0  0  0  0  0  0  0  0  0  0  0
   63.7939   66.7245   89.3622 H   0  0  0  0  0  0  0  0  0  0  0  0
   63.4092   64.2688   89.1924 H   0  0  0  0  0  0  0  0  0  0  0  0
   63.0323   63.2153   86.9681 H   0  0  0  0  0  0  0  0  0  0  0  0
   62.8243   63.4157   84.5291 H   0  0  0  0  0  0  0  0  0  0  0  0
   62.6149   63.6164   82.0865 H   0  0  0  0  0  0  0  0  0  0  0  0
   62.6275   65.0212   80.0317 H   0  0  0  0  0  0  0  0  0  0  0  0
   63.0091   67.4771   80.2005 H   0  0  0  0  0  0  0  0  0  0  0  0
   63.3866   68.5307   82.4263 H   0  0  0  0  0  0  0  0  0  0  0  0
   63.5938   68.3304   84.8652 H   0  0  0  0  0  0  0  0  0  0  0  0
   63.8026   68.1298   87.3064 H   0  0  0  0  0  0  0  0  0  0  0  0
  1  2  2  0
  2  3  1  0
  3  4  2  0
  4  5  1  0
  5  6  2  0
  6  7  1  0
  7  8  2  0
  8  9  1  0
  9 10  2  0
 10 11  1  0
 11 12  2  0
 12 13  1  0
 13 14  2  0
 14  1  1  0
 13  4  1  0
 11  6  1  0
  1 15  1  0
  2 16  1  0
  3 17  1  0
  5 18  1  0
  7 19  1  0
  8 20  1  0
  9 21  1  0
 10 22  1  0
 12 23  1  0
 14 24  1  0
M  END
>  <meeko>  (3) 
{"is_sidechain": [false], "free_energy": -7.878, "intermolecular_energy": -7.878, "internal_energy": 0.0}

$$$$
PahS_anthracene_out_p36
     RDKit          3D

 24 26  0  0  0  0  0  0  0  0999 V2000
   63.0130   66.8760   81.1150 C   0  0  0  0  0  0  0  0  0  0  0  0
   62.8320   65.5020   81.0060 C   0  0  0  0  0  0  0  0  0  0  0  0
   62.8380   64.7040   82.1530 C   0  0  0  0  0  0  0  0  0  0  0  0
   63.0250   65.2750   83.4230 C   0  0  0  0  0  0  0  0  0  0  0  0
   63.0340   64.4860   84.5850 C   0  0  0  0  0  0  0  0  0  0  0  0
   63.2210   65.0560   85.8560 C   0  0  0  0  0  0  0  0  0  0  0  0
   63.2290   64.2680   87.0190 C   0  0  0  0  0  0  0  0  0  0  0  0
   63.4150   64.8490   88.2740 C   0  0  0  0  0  0  0  0  0  0  0  0
   63.5960   66.2240   88.3830 C   0  0  0  0  0  0  0  0  0  0  0  0
   63.5900   67.0220   87.2360 C   0  0  0  0  0  0  0  0  0  0  0  0
   63.4030   66.4510   85.9660 C   0  0  0  0  0  0  0  0  0  0  0  0
   63.3950   67.2400   84.8040 C   0  0  0  0  0  0  0  0  0  0  0  0
   63.2070   66.6700   83.5330 C   0  0  0  0  0  0  0  0  0  0  0  0
   63.1990   67.4580   82.3700 C   0  0  0  0  0  0  0  0  0  0  0  0
   63.0096   67.5045   80.2123 H   0  0  0  0  0  0  0  0  0  0  0  0
   62.6841   65.0432   80.0172 H   0  0  0  0  0  0  0  0  0  0  0  0
   62.6948   63.6173   82.0606 H   0  0  0  0  0  0  0  0  0  0  0  0
   62.8916   63.3987   84.4984 H   0  0  0  0  0  0  0  0  0  0  0  0
   63.0870   63.1801   86.9394 H   0  0  0  0  0  0  0  0  0  0  0  0
   63.4185   64.2202   89.1765 H   0  0  0  0  0  0  0  0  0  0  0  0
   63.7438   66.6828   89.3718 H   0  0  0  0  0  0  0  0  0  0  0  0
   63.7332   68.1087   87.3284 H   0  0  0  0  0  0  0  0  0  0  0  0
   63.5389   68.3271   84.8905 H   0  0  0  0  0  0  0  0  0  0  0  0
   63.3409   68.5459   82.4493 H   0  0  0  0  0  0  0  0  0  0  0  0
  1  2  2  0
  2  3  1  0
  3  4  2  0
  4  5  1  0
  5  6  2  0
  6  7  1  0
  7  8  2  0
  8  9  1  0
  9 10  2  0
 10 11  1  0
 11 12  2  0
 12 13  1  0
 13 14  2  0
 14  1  1  0
 13  4  1  0
 11  6  1  0
  1 15  1  0
  2 16  1  0
  3 17  1  0
  5 18  1  0
  7 19  1  0
  8 20  1  0
  9 21  1  0
 10 22  1  0
 12 23  1  0
 14 24  1  0
M  END
>  <meeko>  (4) 
{"is_sidechain": [false], "free_energy": -7.856, "intermolecular_energy": -7.856, "internal_energy": 0.0}

$$$$
PahS_anthracene_out_p36
     RDKit          3D

 24 26  0  0  0  0  0  0  0  0999 V2000
   62.9390   73.2580   89.8860 C   0  0  0  0  0  0  0  0  0  0  0  0
   61.8970   72.3880   89.5870 C   0  0  0  0  0  0  0  0  0  0  0  0
   60.6140   72.6390   90.0800 C   0  0  0  0  0  0  0  0  0  0  0  0
   60.3610   73.7660   90.8800 C   0  0  0  0  0  0  0  0  0  0  0  0
   59.0770   74.0320   91.3840 C   0  0  0  0  0  0  0  0  0  0  0  0
   58.8230   75.1590   92.1840 C   0  0  0  0  0  0  0  0  0  0  0  0
   57.5390   75.4260   92.6870 C   0  0  0  0  0  0  0  0  0  0  0  0
   57.3030   76.5500   93.4800 C   0  0  0  0  0  0  0  0  0  0  0  0
   58.3460   77.4210   93.7800 C   0  0  0  0  0  0  0  0  0  0  0  0
   59.6280   77.1690   93.2870 C   0  0  0  0  0  0  0  0  0  0  0  0
   59.8810   76.0420   92.4870 C   0  0  0  0  0  0  0  0  0  0  0  0
   61.1650   75.7760   91.9830 C   0  0  0  0  0  0  0  0  0  0  0  0
   61.4190   74.6500   91.1830 C   0  0  0  0  0  0  0  0  0  0  0  0
   62.7030   74.3820   90.6790 C   0  0  0  0  0  0  0  0  0  0  0  0
   63.9491   73.0607   89.4978 H   0  0  0  0  0  0  0  0  0  0  0  0
   62.0825   71.5019   88.9622 H   0  0  0  0  0  0  0  0  0  0  0  0
   59.7934   71.9471   89.8393 H   0  0  0  0  0  0  0  0  0  0  0  0
   58.2526   73.3432   91.1473 H   0  0  0  0  0  0  0  0  0  0  0  0
   56.7102   74.7416   92.4533 H   0  0  0  0  0  0  0  0  0  0  0  0
   56.2927   76.7473   93.8678 H   0  0  0  0  0  0  0  0  0  0  0  0
   58.1608   78.3071   94.4049 H   0  0  0  0  0  0  0  0  0  0  0  0
   60.4489   77.8605   93.5277 H   0  0  0  0  0  0  0  0  0  0  0  0
   61.9894   76.4646   92.2201 H   0  0  0  0  0  0  0  0  0  0  0  0
   63.5321   75.0663   90.9123 H   0  0  0  0  0  0  0  0  0  0  0  0
  1  2  2  0
  2  3  1  0
  3  4  2  0
  4  5  1  0
  5  6  2  0
  6  7  1  0
  7  8  2  0
  8  9  1  0
  9 10  2  0
 10 11  1  0
 11 12  2  0
 12 13  1  0
 13 14  2  0
 14  1  1  0
 13  4  1  0
 11  6  1  0
  1 15  1  0
  2 16  1  0
  3 17  1  0
  5 18  1  0
  7 19  1  0
  8 20  1  0
  9 21  1  0
 10 22  1  0
 12 23  1  0
 14 24  1  0
M  END
>  <meeko>  (5) 
{"is_sidechain": [false], "free_energy": -7.104, "intermolecular_energy": -7.104, "internal_energy": 0.0}

$$$$
PahS_anthracene_out_p36
     RDKit          3D

 24 26  0  0  0  0  0  0  0  0999 V2000
   58.3300   77.3850   93.8130 C   0  0  0  0  0  0  0  0  0  0  0  0
   57.2930   76.5240   93.4700 C   0  0  0  0  0  0  0  0  0  0  0  0
   57.5440   75.4210   92.6520 C   0  0  0  0  0  0  0  0  0  0  0  0
   58.8390   75.1660   92.1670 C   0  0  0  0  0  0  0  0  0  0  0  0
   59.1070   74.0600   91.3440 C   0  0  0  0  0  0  0  0  0  0  0  0
   60.4000   73.8050   90.8590 C   0  0  0  0  0  0  0  0  0  0  0  0
   60.6700   72.6990   90.0350 C   0  0  0  0  0  0  0  0  0  0  0  0
   61.9610   72.4590   89.5620 C   0  0  0  0  0  0  0  0  0  0  0  0
   62.9980   73.3200   89.9050 C   0  0  0  0  0  0  0  0  0  0  0  0
   62.7470   74.4240   90.7240 C   0  0  0  0  0  0  0  0  0  0  0  0
   61.4530   74.6780   91.2080 C   0  0  0  0  0  0  0  0  0  0  0  0
   61.1840   75.7840   92.0320 C   0  0  0  0  0  0  0  0  0  0  0  0
   59.8910   76.0390   92.5170 C   0  0  0  0  0  0  0  0  0  0  0  0
   59.6210   77.1450   93.3400 C   0  0  0  0  0  0  0  0  0  0  0  0
   58.1328   78.2548   94.4568 H   0  0  0  0  0  0  0  0  0  0  0  0
   56.2755   76.7121   93.8431 H   0  0  0  0  0  0  0  0  0  0  0  0
   56.7196   74.7439   92.3839 H   0  0  0  0  0  0  0  0  0  0  0  0
   58.2866   73.3790   91.0735 H   0  0  0  0  0  0  0  0  0  0  0  0
   59.8542   72.0144   89.7596 H   0  0  0  0  0  0  0  0  0  0  0  0
   62.1582   71.5892   88.9182 H   0  0  0  0  0  0  0  0  0  0  0  0
   64.0155   73.1319   89.5317 H   0  0  0  0  0  0  0  0  0  0  0  0
   63.5712   75.1012   90.9925 H   0  0  0  0  0  0  0  0  0  0  0  0
   62.0042   76.4650   92.3031 H   0  0  0  0  0  0  0  0  0  0  0  0
   60.4367   77.8299   93.6149 H   0  0  0  0  0  0  0  0  0  0  0  0
  1  2  2  0
  2  3  1  0
  3  4  2  0
  4  5  1  0
  5  6  2  0
  6  7  1  0
  7  8  2  0
  8  9  1  0
  9 10  2  0
 10 11  1  0
 11 12  2  0
 12 13  1  0
 13 14  2  0
 14  1  1  0
 13  4  1  0
 11  6  1  0
  1 15  1  0
  2 16  1  0
  3 17  1  0
  5 18  1  0
  7 19  1  0
  8 20  1  0
  9 21  1  0
 10 22  1  0
 12 23  1  0
 14 24  1  0
M  END
>  <meeko>  (6) 
{"is_sidechain": [false], "free_energy": -7.102, "intermolecular_energy": -7.102, "internal_energy": 0.0}

$$$$
PahS_anthracene_out_p36
     RDKit          3D

 24 26  0  0  0  0  0  0  0  0999 V2000
   61.9430   72.3720   89.6350 C   0  0  0  0  0  0  0  0  0  0  0  0
   62.9800   73.2450   89.9480 C   0  0  0  0  0  0  0  0  0  0  0  0
   62.7310   74.3690   90.7380 C   0  0  0  0  0  0  0  0  0  0  0  0
   61.4400   74.6330   91.2250 C   0  0  0  0  0  0  0  0  0  0  0  0
   61.1740   75.7600   92.0210 C   0  0  0  0  0  0  0  0  0  0  0  0
   59.8840   76.0250   92.5080 C   0  0  0  0  0  0  0  0  0  0  0  0
   59.6170   77.1510   93.3050 C   0  0  0  0  0  0  0  0  0  0  0  0
   58.3290   77.3990   93.7820 C   0  0  0  0  0  0  0  0  0  0  0  0
   57.2920   76.5270   93.4690 C   0  0  0  0  0  0  0  0  0  0  0  0
   57.5400   75.4030   92.6790 C   0  0  0  0  0  0  0  0  0  0  0  0
   58.8320   75.1380   92.1920 C   0  0  0  0  0  0  0  0  0  0  0  0
   59.0970   74.0120   91.3960 C   0  0  0  0  0  0  0  0  0  0  0  0
   60.3880   73.7470   90.9090 C   0  0  0  0  0  0  0  0  0  0  0  0
   60.6550   72.6210   90.1120 C   0  0  0  0  0  0  0  0  0  0  0  0
   62.1379   71.4864   89.0123 H   0  0  0  0  0  0  0  0  0  0  0  0
   63.9956   73.0498   89.5733 H   0  0  0  0  0  0  0  0  0  0  0  0
   63.5551   75.0556   90.9818 H   0  0  0  0  0  0  0  0  0  0  0  0
   61.9944   76.4498   92.2680 H   0  0  0  0  0  0  0  0  0  0  0  0
   60.4326   77.8451   93.5559 H   0  0  0  0  0  0  0  0  0  0  0  0
   58.1342   78.2841   94.4054 H   0  0  0  0  0  0  0  0  0  0  0  0
   56.2765   76.7228   93.8438 H   0  0  0  0  0  0  0  0  0  0  0  0
   56.7154   74.7171   92.4349 H   0  0  0  0  0  0  0  0  0  0  0  0
   58.2763   73.3227   91.1484 H   0  0  0  0  0  0  0  0  0  0  0  0
   59.8391   71.9273   89.8609 H   0  0  0  0  0  0  0  0  0  0  0  0
  1  2  2  0
  2  3  1  0
  3  4  2  0
  4  5  1  0
  5  6  2  0
  6  7  1  0
  7  8  2  0
  8  9  1  0
  9 10  2  0
 10 11  1  0
 11 12  2  0
 12 13  1  0
 13 14  2  0
 14  1  1  0
 13  4  1  0
 11  6  1  0
  1 15  1  0
  2 16  1  0
  3 17  1  0
  5 18  1  0
  7 19  1  0
  8 20  1  0
  9 21  1  0
 10 22  1  0
 12 23  1  0
 14 24  1  0
M  END
>  <meeko>  (7) 
{"is_sidechain": [false], "free_energy": -7.087, "intermolecular_energy": -7.087, "internal_energy": 0.0}

$$$$
PahS_anthracene_out_p36
     RDKit          3D

 24 26  0  0  0  0  0  0  0  0999 V2000
   57.2550   76.4980   93.4720 C   0  0  0  0  0  0  0  0  0  0  0  0
   58.2880   77.3780   93.7810 C   0  0  0  0  0  0  0  0  0  0  0  0
   59.5760   77.1380   93.2980 C   0  0  0  0  0  0  0  0  0  0  0  0
   59.8460   76.0140   92.4990 C   0  0  0  0  0  0  0  0  0  0  0  0
   61.1360   75.7600   92.0060 C   0  0  0  0  0  0  0  0  0  0  0  0
   61.4070   74.6370   91.2070 C   0  0  0  0  0  0  0  0  0  0  0  0
   62.6970   74.3810   90.7130 C   0  0  0  0  0  0  0  0  0  0  0  0
   62.9500   73.2610   89.9200 C   0  0  0  0  0  0  0  0  0  0  0  0
   61.9170   72.3810   89.6110 C   0  0  0  0  0  0  0  0  0  0  0  0
   60.6290   72.6210   90.0940 C   0  0  0  0  0  0  0  0  0  0  0  0
   60.3590   73.7450   90.8930 C   0  0  0  0  0  0  0  0  0  0  0  0
   59.0690   73.9990   91.3870 C   0  0  0  0  0  0  0  0  0  0  0  0
   58.7980   75.1220   92.1850 C   0  0  0  0  0  0  0  0  0  0  0  0
   57.5080   75.3770   92.6790 C   0  0  0  0  0  0  0  0  0  0  0  0
   56.2400   76.6855   93.8522 H   0  0  0  0  0  0  0  0  0  0  0  0
   58.0900   78.2618   94.4052 H   0  0  0  0  0  0  0  0  0  0  0  0
   60.3886   77.8368   93.5458 H   0  0  0  0  0  0  0  0  0  0  0  0
   61.9522   76.4557   92.2508 H   0  0  0  0  0  0  0  0  0  0  0  0
   63.5180   75.0722   90.9544 H   0  0  0  0  0  0  0  0  0  0  0  0
   63.9650   73.0738   89.5395 H   0  0  0  0  0  0  0  0  0  0  0  0
   62.1150   71.4971   88.9868 H   0  0  0  0  0  0  0  0  0  0  0  0
   59.8164   71.9222   89.8462 H   0  0  0  0  0  0  0  0  0  0  0  0
   58.2530   73.3028   91.1433 H   0  0  0  0  0  0  0  0  0  0  0  0
   56.6873   74.6853   92.4382 H   0  0  0  0  0  0  0  0  0  0  0  0
  1  2  2  0
  2  3  1  0
  3  4  2  0
  4  5  1  0
  5  6  2  0
  6  7  1  0
  7  8  2  0
  8  9  1  0
  9 10  2  0
 10 11  1  0
 11 12  2  0
 12 13  1  0
 13 14  2  0
 14  1  1  0
 13  4  1  0
 11  6  1  0
  1 15  1  0
  2 16  1  0
  3 17  1  0
  5 18  1  0
  7 19  1  0
  8 20  1  0
  9 21  1  0
 10 22  1  0
 12 23  1  0
 14 24  1  0
M  END
>  <meeko>  (8) 
{"is_sidechain": [false], "free_energy": -7.086, "intermolecular_energy": -7.086, "internal_energy": 0.0}

$$$$
PahS_anthracene_out_p36
     RDKit          3D

 24 26  0  0  0  0  0  0  0  0999 V2000
   57.0280   76.1130   92.7750 C   0  0  0  0  0  0  0  0  0  0  0  0
   57.6330   76.0880   94.0270 C   0  0  0  0  0  0  0  0  0  0  0  0
   58.8480   75.4220   94.2010 C   0  0  0  0  0  0  0  0  0  0  0  0
   59.4730   74.7740   93.1230 C   0  0  0  0  0  0  0  0  0  0  0  0
   60.6960   74.1010   93.2820 C   0  0  0  0  0  0  0  0  0  0  0  0
   61.3210   73.4530   92.2050 C   0  0  0  0  0  0  0  0  0  0  0  0
   62.5440   72.7800   92.3630 C   0  0  0  0  0  0  0  0  0  0  0  0
   63.1530   72.1410   91.2820 C   0  0  0  0  0  0  0  0  0  0  0  0
   62.5490   72.1670   90.0290 C   0  0  0  0  0  0  0  0  0  0  0  0
   61.3340   72.8320   89.8550 C   0  0  0  0  0  0  0  0  0  0  0  0
   60.7080   73.4800   90.9340 C   0  0  0  0  0  0  0  0  0  0  0  0
   59.4860   74.1530   90.7740 C   0  0  0  0  0  0  0  0  0  0  0  0
   58.8600   74.8010   91.8520 C   0  0  0  0  0  0  0  0  0  0  0  0
   57.6370   75.4750   91.6930 C   0  0  0  0  0  0  0  0  0  0  0  0
   56.0698   76.6354   92.6374 H   0  0  0  0  0  0  0  0  0  0  0  0
   57.1548   76.5925   94.8796 H   0  0  0  0  0  0  0  0  0  0  0  0
   59.3211   75.4047   95.1939 H   0  0  0  0  0  0  0  0  0  0  0  0
   61.1743   74.0814   94.2724 H   0  0  0  0  0  0  0  0  0  0  0  0
   63.0275   72.7564   93.3508 H   0  0  0  0  0  0  0  0  0  0  0  0
   64.1102   71.6170   91.4206 H   0  0  0  0  0  0  0  0  0  0  0  0
   63.0284   71.6640   89.1762 H   0  0  0  0  0  0  0  0  0  0  0  0
   60.8610   72.8491   88.8621 H   0  0  0  0  0  0  0  0  0  0  0  0
   59.0085   74.1733   89.7832 H   0  0  0  0  0  0  0  0  0  0  0  0
   57.1543   75.5001   90.7049 H   0  0  0  0  0  0  0  0  0  0  0  0
  1  2  2  0
  2  3  1  0
  3  4  2  0
  4  5  1  0
  5  6  2  0
  6  7  1  0
  7  8  2  0
  8  9  1  0
  9 10  2  0
 10 11  1  0
 11 12  2  0
 12 13  1  0
 13 14  2  0
 14  1  1  0
 13  4  1  0
 11  6  1  0
  1 15  1  0
  2 16  1  0
  3 17  1  0
  5 18  1  0
  7 19  1  0
  8 20  1  0
  9 21  1  0
 10 22  1  0
 12 23  1  0
 14 24  1  0
M  END
>  <meeko>  (9) 
{"is_sidechain": [false], "free_energy": -6.773, "intermolecular_energy": -6.773, "internal_energy": 0.0}

$$$$
