PahS_naphthalene_out_p12
     RDKit          3D

 18 19  0  0  0  0  0  0  0  0999 V2000
   81.4980   56.0760   59.9510 C   0  0  0  0  0  0  0  0  0  0  0  0
   81.2500   56.8500   61.0810 C   0  0  0  0  0  0  0  0  0  0  0  0
   81.0000   58.2170   60.9490 C   0  0  0  0  0  0  0  0  0  0  0  0
   80.9970   58.8270   59.6850 C   0  0  0  0  0  0  0  0  0  0  0  0
   80.7480   60.2010   59.5350 C   0  0  0  0  0  0  0  0  0  0  0  0
   80.7470   60.7930   58.2710 C   0  0  0  0  0  0  0  0  0  0  0  0
   80.9950   60.0190   57.1410 C   0  0  0  0  0  0  0  0  0  0  0  0
   81.2450   58.6520   57.2720 C   0  0  0  0  0  0  0  0  0  0  0  0
   81.2480   58.0420   58.5370 C   0  0  0  0  0  0  0  0  0  0  0  0
   81.4980   56.6680   58.6860 C   0  0  0  0  0  0  0  0  0  0  0  0
   81.6939   54.9985   60.0543 H   0  0  0  0  0  0  0  0  0  0  0  0
   81.2510   56.3846   62.0777 H   0  0  0  0  0  0  0  0  0  0  0  0
   80.8031   58.8229   61.8457 H   0  0  0  0  0  0  0  0  0  0  0  0
   80.5514   60.8180   60.4242 H   0  0  0  0  0  0  0  0  0  0  0  0
   80.5504   61.8704   58.1679 H   0  0  0  0  0  0  0  0  0  0  0  0
   80.9940   60.4848   56.1445 H   0  0  0  0  0  0  0  0  0  0  0  0
   81.4417   58.0462   56.3751 H   0  0  0  0  0  0  0  0  0  0  0  0
   81.6959   56.0515   57.7968 H   0  0  0  0  0  0  0  0  0  0  0  0
  1  2  2  0
  2  3  1  0
  3  4  2  0
  4  5  1  0
  5  6  2  0
  6  7  1  0
  7  8  2  0
  8  9  1  0
  9 10  2  0
 10  1  1  0
  9  4  1  0
  1 11  1  0
  2 12  1  0
  3 13  1  0
  5 14  1  0
  6 15  1  0
  7 16  1  0
  8 17  1  0
 10 18  1  0
M  END
>  <meeko>  (1) 
{"is_sidechain": [false], "free_energy": -5.223, "intermolecular_energy": -5.223, "internal_energy": 0.0}

$$$$
PahS_naphthalene_out_p12
     RDKit          3D

 18 19  0  0  0  0  0  0  0  0999 V2000
   80.7150   60.6850   58.2230 C   0  0  0  0  0  0  0  0  0  0  0  0
   80.9740   59.8960   57.1060 C   0  0  0  0  0  0  0  0  0  0  0  0
   81.2350   58.5330   57.2610 C   0  0  0  0  0  0  0  0  0  0  0  0
   81.2440   57.9440   58.5350 C   0  0  0  0  0  0  0  0  0  0  0  0
   81.5060   56.5750   58.7070 C   0  0  0  0  0  0  0  0  0  0  0  0
   81.5090   56.0040   59.9810 C   0  0  0  0  0  0  0  0  0  0  0  0
   81.2510   56.7930   61.0980 C   0  0  0  0  0  0  0  0  0  0  0  0
   80.9890   58.1560   60.9440 C   0  0  0  0  0  0  0  0  0  0  0  0
   80.9810   58.7450   59.6690 C   0  0  0  0  0  0  0  0  0  0  0  0
   80.7190   60.1140   59.4970 C   0  0  0  0  0  0  0  0  0  0  0  0
   80.5072   61.7584   58.1020 H   0  0  0  0  0  0  0  0  0  0  0  0
   80.9731   60.3457   56.1021 H   0  0  0  0  0  0  0  0  0  0  0  0
   81.4359   57.9137   56.3744 H   0  0  0  0  0  0  0  0  0  0  0  0
   81.7111   55.9458   57.8284 H   0  0  0  0  0  0  0  0  0  0  0  0
   81.7153   54.9303   60.1019 H   0  0  0  0  0  0  0  0  0  0  0  0
   81.2534   56.3432   62.1018 H   0  0  0  0  0  0  0  0  0  0  0  0
   80.7867   58.7749   61.8306 H   0  0  0  0  0  0  0  0  0  0  0  0
   80.5147   60.7433   60.3758 H   0  0  0  0  0  0  0  0  0  0  0  0
  1  2  2  0
  2  3  1  0
  3  4  2  0
  4  5  1  0
  5  6  2  0
  6  7  1  0
  7  8  2  0
  8  9  1  0
  9 10  2  0
 10  1  1  0
  9  4  1  0
  1 11  1  0
  2 12  1  0
  3 13  1  0
  5 14  1  0
  6 15  1  0
  7 16  1  0
  8 17  1  0
 10 18  1  0
M  END
>  <meeko>  (2) 
{"is_sidechain": [false], "free_energy": -5.221, "intermolecular_energy": -5.221, "internal_energy": 0.0}

$$$$
PahS_naphthalene_out_p12
     RDKit          3D

 18 19  0  0  0  0  0  0  0  0999 V2000
   81.2770   56.8650   61.0780 C   0  0  0  0  0  0  0  0  0  0  0  0
   81.4880   56.0610   59.9620 C   0  0  0  0  0  0  0  0  0  0  0  0
   81.4640   56.6220   58.6830 C   0  0  0  0  0  0  0  0  0  0  0  0
   81.2270   57.9950   58.5070 C   0  0  0  0  0  0  0  0  0  0  0  0
   81.2000   58.5750   57.2280 C   0  0  0  0  0  0  0  0  0  0  0  0
   80.9640   59.9410   57.0690 C   0  0  0  0  0  0  0  0  0  0  0  0
   80.7530   60.7450   58.1850 C   0  0  0  0  0  0  0  0  0  0  0  0
   80.7760   60.1840   59.4640 C   0  0  0  0  0  0  0  0  0  0  0  0
   81.0130   58.8120   59.6400 C   0  0  0  0  0  0  0  0  0  0  0  0
   81.0410   58.2320   60.9190 C   0  0  0  0  0  0  0  0  0  0  0  0
   81.2961   56.4237   62.0854 H   0  0  0  0  0  0  0  0  0  0  0  0
   81.6736   54.9840   60.0870 H   0  0  0  0  0  0  0  0  0  0  0  0
   81.6325   55.9817   57.8045 H   0  0  0  0  0  0  0  0  0  0  0  0
   81.3668   57.9452   56.3417 H   0  0  0  0  0  0  0  0  0  0  0  0
   80.9447   60.3823   56.0616 H   0  0  0  0  0  0  0  0  0  0  0  0
   80.5681   61.8221   58.0600 H   0  0  0  0  0  0  0  0  0  0  0  0
   80.6066   60.8242   60.3423 H   0  0  0  0  0  0  0  0  0  0  0  0
   80.8751   58.8619   61.8054 H   0  0  0  0  0  0  0  0  0  0  0  0
  1  2  2  0
  2  3  1  0
  3  4  2  0
  4  5  1  0
  5  6  2  0
  6  7  1  0
  7  8  2  0
  8  9  1  0
  9 10  2  0
 10  1  1  0
  9  4  1  0
  1 11  1  0
  2 12  1  0
  3 13  1  0
  5 14  1  0
  6 15  1  0
  7 16  1  0
  8 17  1  0
 10 18  1  0
M  END
>  <meeko>  (3) 
{"is_sidechain": [false], "free_energy": -5.21, "intermolecular_energy": -5.21, "internal_energy": 0.0}

$$$$
PahS_naphthalene_out_p12
     RDKit          3D

 18 19  0  0  0  0  0  0  0  0999 V2000
   80.9160   59.9330   57.0410 C   0  0  0  0  0  0  0  0  0  0  0  0
   80.6130   60.7260   58.1440 C   0  0  0  0  0  0  0  0  0  0  0  0
   80.6070   60.1680   59.4230 C   0  0  0  0  0  0  0  0  0  0  0  0
   80.9020   58.8080   59.6150 C   0  0  0  0  0  0  0  0  0  0  0  0
   80.8990   58.2320   60.8950 C   0  0  0  0  0  0  0  0  0  0  0  0
   81.1960   56.8790   61.0690 C   0  0  0  0  0  0  0  0  0  0  0  0
   81.4980   56.0860   59.9660 C   0  0  0  0  0  0  0  0  0  0  0  0
   81.5050   56.6440   58.6860 C   0  0  0  0  0  0  0  0  0  0  0  0
   81.2100   58.0030   58.4950 C   0  0  0  0  0  0  0  0  0  0  0  0
   81.2130   58.5800   57.2140 C   0  0  0  0  0  0  0  0  0  0  0  0
   80.9214   60.3726   56.0327 H   0  0  0  0  0  0  0  0  0  0  0  0
   80.3784   61.7920   58.0076 H   0  0  0  0  0  0  0  0  0  0  0  0
   80.3685   60.8004   60.2909 H   0  0  0  0  0  0  0  0  0  0  0  0
   80.6600   58.8534   61.7706 H   0  0  0  0  0  0  0  0  0  0  0  0
   81.1913   56.4399   62.0776 H   0  0  0  0  0  0  0  0  0  0  0  0
   81.7312   55.0197   60.1025 H   0  0  0  0  0  0  0  0  0  0  0  0
   81.7442   56.0119   57.8181 H   0  0  0  0  0  0  0  0  0  0  0  0
   81.4519   57.9590   56.3380 H   0  0  0  0  0  0  0  0  0  0  0  0
  1  2  2  0
  2  3  1  0
  3  4  2  0
  4  5  1  0
  5  6  2  0
  6  7  1  0
  7  8  2  0
  8  9  1  0
  9 10  2  0
 10  1  1  0
  9  4  1  0
  1 11  1  0
  2 12  1  0
  3 13  1  0
  5 14  1  0
  6 15  1  0
  7 16  1  0
  8 17  1  0
 10 18  1  0
M  END
>  <meeko>  (4) 
{"is_sidechain": [false], "free_energy": -5.18, "intermolecular_energy": -5.18, "internal_energy": 0.0}

$$$$
PahS_naphthalene_out_p12
     RDKit          3D

 18 19  0  0  0  0  0  0  0  0999 V2000
   80.9300   55.0570   65.0470 C   0  0  0  0  0  0  0  0  0  0  0  0
   81.6130   56.2640   64.9300 C   0  0  0  0  0  0  0  0  0  0  0  0
   81.3290   57.3140   65.8060 C   0  0  0  0  0  0  0  0  0  0  0  0
   80.3570   57.1690   66.8090 C   0  0  0  0  0  0  0  0  0  0  0  0
   80.0600   58.2150   67.6970 C   0  0  0  0  0  0  0  0  0  0  0  0
   79.0920   58.0540   68.6900 C   0  0  0  0  0  0  0  0  0  0  0  0
   78.4090   56.8470   68.8070 C   0  0  0  0  0  0  0  0  0  0  0  0
   78.6930   55.7970   67.9310 C   0  0  0  0  0  0  0  0  0  0  0  0
   79.6650   55.9430   66.9280 C   0  0  0  0  0  0  0  0  0  0  0  0
   79.9620   54.8960   66.0400 C   0  0  0  0  0  0  0  0  0  0  0  0
   81.1529   54.2298   64.3570 H   0  0  0  0  0  0  0  0  0  0  0  0
   82.3761   56.3909   64.1480 H   0  0  0  0  0  0  0  0  0  0  0  0
   81.8728   58.2652   65.7092 H   0  0  0  0  0  0  0  0  0  0  0  0
   80.5957   59.1717   67.6094 H   0  0  0  0  0  0  0  0  0  0  0  0
   78.8691   58.8812   69.3800 H   0  0  0  0  0  0  0  0  0  0  0  0
   77.6459   56.7201   69.5890 H   0  0  0  0  0  0  0  0  0  0  0  0
   78.1495   54.8455   68.0277 H   0  0  0  0  0  0  0  0  0  0  0  0
   79.4263   53.9393   66.1279 H   0  0  0  0  0  0  0  0  0  0  0  0
  1  2  2  0
  2  3  1  0
  3  4  2  0
  4  5  1  0
  5  6  2  0
  6  7  1  0
  7  8  2  0
  8  9  1  0
  9 10  2  0
 10  1  1  0
  9  4  1  0
  1 11  1  0
  2 12  1  0
  3 13  1  0
  5 14  1  0
  6 15  1  0
  7 16  1  0
  8 17  1  0
 10 18  1  0
M  END
>  <meeko>  (5) 
{"is_sidechain": [false], "free_energy": -4.821, "intermolecular_energy": -4.821, "internal_energy": 0.0}

$$$$
PahS_naphthalene_out_p12
     RDKit          3D

 18 19  0  0  0  0  0  0  0  0999 V2000
   81.3490   56.4330   65.6440 C   0  0  0  0  0  0  0  0  0  0  0  0
   80.9370   57.1910   64.5520 C   0  0  0  0  0  0  0  0  0  0  0  0
   80.2130   58.3680   64.7530 C   0  0  0  0  0  0  0  0  0  0  0  0
   79.8920   58.8000   66.0500 C   0  0  0  0  0  0  0  0  0  0  0  0
   79.1640   59.9810   66.2690 C   0  0  0  0  0  0  0  0  0  0  0  0
   78.8530   60.3970   67.5650 C   0  0  0  0  0  0  0  0  0  0  0  0
   79.2650   59.6390   68.6570 C   0  0  0  0  0  0  0  0  0  0  0  0
   79.9890   58.4620   68.4560 C   0  0  0  0  0  0  0  0  0  0  0  0
   80.3110   58.0310   67.1590 C   0  0  0  0  0  0  0  0  0  0  0  0
   81.0390   56.8500   66.9400 C   0  0  0  0  0  0  0  0  0  0  0  0
   81.9188   55.5054   65.4861 H   0  0  0  0  0  0  0  0  0  0  0  0
   81.1816   56.8631   63.5309 H   0  0  0  0  0  0  0  0  0  0  0  0
   79.8906   58.9632   63.8859 H   0  0  0  0  0  0  0  0  0  0  0  0
   78.8353   60.5847   65.4102 H   0  0  0  0  0  0  0  0  0  0  0  0
   78.2823   61.3240   67.7229 H   0  0  0  0  0  0  0  0  0  0  0  0
   79.0204   59.9669   69.6781 H   0  0  0  0  0  0  0  0  0  0  0  0
   80.3105   57.8661   69.3229 H   0  0  0  0  0  0  0  0  0  0  0  0
   81.3686   56.2470   67.7989 H   0  0  0  0  0  0  0  0  0  0  0  0
  1  2  2  0
  2  3  1  0
  3  4  2  0
  4  5  1  0
  5  6  2  0
  6  7  1  0
  7  8  2  0
  8  9  1  0
  9 10  2  0
 10  1  1  0
  9  4  1  0
  1 11  1  0
  2 12  1  0
  3 13  1  0
  5 14  1  0
  6 15  1  0
  7 16  1  0
  8 17  1  0
 10 18  1  0
M  END
>  <meeko>  (6) 
{"is_sidechain": [false], "free_energy": -4.79, "intermolecular_energy": -4.79, "internal_energy": 0.0}

$$$$
PahS_naphthalene_out_p12
     RDKit          3D

 18 19  0  0  0  0  0  0  0  0999 V2000
   80.8890   57.1650   64.5300 C   0  0  0  0  0  0  0  0  0  0  0  0
   81.3130   56.4340   65.6370 C   0  0  0  0  0  0  0  0  0  0  0  0
   81.0080   56.8790   66.9250 C   0  0  0  0  0  0  0  0  0  0  0  0
   80.2760   58.0610   67.1210 C   0  0  0  0  0  0  0  0  0  0  0  0
   79.9610   58.5220   68.4100 C   0  0  0  0  0  0  0  0  0  0  0  0
   79.2320   59.6990   68.5880 C   0  0  0  0  0  0  0  0  0  0  0  0
   78.8080   60.4290   67.4810 C   0  0  0  0  0  0  0  0  0  0  0  0
   79.1130   59.9850   66.1930 C   0  0  0  0  0  0  0  0  0  0  0  0
   79.8450   58.8030   65.9970 C   0  0  0  0  0  0  0  0  0  0  0  0
   80.1600   58.3420   64.7090 C   0  0  0  0  0  0  0  0  0  0  0  0
   81.1284   56.8151   63.5150 H   0  0  0  0  0  0  0  0  0  0  0  0
   81.8878   55.5067   65.4968 H   0  0  0  0  0  0  0  0  0  0  0  0
   81.3449   56.2971   67.7956 H   0  0  0  0  0  0  0  0  0  0  0  0
   80.2924   57.9492   69.2887 H   0  0  0  0  0  0  0  0  0  0  0  0
   78.9926   60.0497   69.6027 H   0  0  0  0  0  0  0  0  0  0  0  0
   78.2325   61.3559   67.6212 H   0  0  0  0  0  0  0  0  0  0  0  0
   78.7763   60.5673   65.3226 H   0  0  0  0  0  0  0  0  0  0  0  0
   79.8285   58.9149   63.8305 H   0  0  0  0  0  0  0  0  0  0  0  0
  1  2  2  0
  2  3  1  0
  3  4  2  0
  4  5  1  0
  5  6  2  0
  6  7  1  0
  7  8  2  0
  8  9  1  0
  9 10  2  0
 10  1  1  0
  9  4  1  0
  1 11  1  0
  2 12  1  0
  3 13  1  0
  5 14  1  0
  6 15  1  0
  7 16  1  0
  8 17  1  0
 10 18  1  0
M  END
>  <meeko>  (7) 
{"is_sidechain": [false], "free_energy": -4.789, "intermolecular_energy": -4.789, "internal_energy": 0.0}

$$$$
PahS_naphthalene_out_p12
     RDKit          3D

 18 19  0  0  0  0  0  0  0  0999 V2000
   79.1830   59.6750   68.6040 C   0  0  0  0  0  0  0  0  0  0  0  0
   78.7710   60.3750   67.4750 C   0  0  0  0  0  0  0  0  0  0  0  0
   79.1070   59.9080   66.2030 C   0  0  0  0  0  0  0  0  0  0  0  0
   79.8610   58.7340   66.0460 C   0  0  0  0  0  0  0  0  0  0  0  0
   80.2080   58.2510   64.7730 C   0  0  0  0  0  0  0  0  0  0  0  0
   80.9570   57.0810   64.6340 C   0  0  0  0  0  0  0  0  0  0  0  0
   81.3690   56.3800   65.7640 C   0  0  0  0  0  0  0  0  0  0  0  0
   81.0330   56.8480   67.0360 C   0  0  0  0  0  0  0  0  0  0  0  0
   80.2790   58.0220   67.1930 C   0  0  0  0  0  0  0  0  0  0  0  0
   79.9320   58.5050   68.4650 C   0  0  0  0  0  0  0  0  0  0  0  0
   78.9188   60.0431   69.6063 H   0  0  0  0  0  0  0  0  0  0  0  0
   78.1804   61.2966   67.5843 H   0  0  0  0  0  0  0  0  0  0  0  0
   78.7775   60.4659   65.3141 H   0  0  0  0  0  0  0  0  0  0  0  0
   79.8860   58.8006   63.8762 H   0  0  0  0  0  0  0  0  0  0  0  0
   81.2216   56.7131   63.6317 H   0  0  0  0  0  0  0  0  0  0  0  0
   81.9589   55.4580   65.6549 H   0  0  0  0  0  0  0  0  0  0  0  0
   81.3628   56.2906   67.9251 H   0  0  0  0  0  0  0  0  0  0  0  0
   80.2539   57.9555   69.3619 H   0  0  0  0  0  0  0  0  0  0  0  0
  1  2  2  0
  2  3  1  0
  3  4  2  0
  4  5  1  0
  5  6  2  0
  6  7  1  0
  7  8  2  0
  8  9  1  0
  9 10  2  0
 10  1  1  0
  9  4  1  0
  1 11  1  0
  2 12  1  0
  3 13  1  0
  5 14  1  0
  6 15  1  0
  7 16  1  0
  8 17  1  0
 10 18  1  0
M  END
>  <meeko>  (8) 
{"is_sidechain": [false], "free_energy": -4.778, "intermolecular_energy": -4.778, "internal_energy": 0.0}

$$$$
PahS_naphthalene_out_p12
     RDKit          3D

 18 19  0  0  0  0  0  0  0  0999 V2000
   78.7070   60.3930   67.4560 C   0  0  0  0  0  0  0  0  0  0  0  0
   79.0690   59.6370   68.5670 C   0  0  0  0  0  0  0  0  0  0  0  0
   79.8100   58.4650   68.4020 C   0  0  0  0  0  0  0  0  0  0  0  0
   80.1970   58.0350   67.1230 C   0  0  0  0  0  0  0  0  0  0  0  0
   80.9420   56.8590   66.9400 C   0  0  0  0  0  0  0  0  0  0  0  0
   81.3200   56.4450   65.6620 C   0  0  0  0  0  0  0  0  0  0  0  0
   80.9580   57.2010   64.5510 C   0  0  0  0  0  0  0  0  0  0  0  0
   80.2170   58.3730   64.7150 C   0  0  0  0  0  0  0  0  0  0  0  0
   79.8300   58.8030   65.9950 C   0  0  0  0  0  0  0  0  0  0  0  0
   79.0850   59.9800   66.1770 C   0  0  0  0  0  0  0  0  0  0  0  0
   78.1230   61.3161   67.5856 H   0  0  0  0  0  0  0  0  0  0  0  0
   78.7715   59.9626   69.5747 H   0  0  0  0  0  0  0  0  0  0  0  0
   80.0936   57.8721   69.2841 H   0  0  0  0  0  0  0  0  0  0  0  0
   81.2311   56.2570   67.8141 H   0  0  0  0  0  0  0  0  0  0  0  0
   81.9037   55.5217   65.5328 H   0  0  0  0  0  0  0  0  0  0  0  0
   81.2557   56.8751   63.5434 H   0  0  0  0  0  0  0  0  0  0  0  0
   79.9334   58.9657   63.8328 H   0  0  0  0  0  0  0  0  0  0  0  0
   78.7965   60.5823   65.3030 H   0  0  0  0  0  0  0  0  0  0  0  0
  1  2  2  0
  2  3  1  0
  3  4  2  0
  4  5  1  0
  5  6  2  0
  6  7  1  0
  7  8  2  0
  8  9  1  0
  9 10  2  0
 10  1  1  0
  9  4  1  0
  1 11  1  0
  2 12  1  0
  3 13  1  0
  5 14  1  0
  6 15  1  0
  7 16  1  0
  8 17  1  0
 10 18  1  0
M  END
>  <meeko>  (9) 
{"is_sidechain": [false], "free_energy": -4.735, "intermolecular_energy": -4.735, "internal_energy": 0.0}

$$$$
