@<TRIPOS>MOLECULE
PHN
   24    26     1     0     0
SMALL
bcc


@<TRIPOS>ATOM
      1 C           68.6160    71.4100    55.2290 ca         1 PHN      -0.128000
      2 C1          67.6530    70.6790    55.9080 ca         1 PHN      -0.127000
      3 C2          67.8510    70.3610    57.2490 ca         1 PHN      -0.118000
      4 C3          69.0120    70.7710    57.9270 ca         1 PHN      -0.036000
      5 C4          69.1760    70.4330    59.2730 ca         1 PHN      -0.116000
      6 C5          70.3140    70.8230    59.9730 ca         1 PHN      -0.116000
      7 C6          71.3210    71.5620    59.3490 ca         1 PHN      -0.036000
      8 C7          72.4580    71.9390    60.0840 ca         1 PHN      -0.118000
      9 C8          73.4840    72.6750    59.4960 ca         1 PHN      -0.127000
     10 C9          73.3830    73.0430    58.1630 ca         1 PHN      -0.128000
     11 C10         72.2580    72.6720    57.4220 ca         1 PHN      -0.119000
     12 C11         71.1920    71.9230    57.9830 ca         1 PHN      -0.019000
     13 C12         70.0150    71.5200    57.2580 ca         1 PHN      -0.019000
     14 C13         69.7750    71.8220    55.8930 ca         1 PHN      -0.119000
     15 H           68.4770    71.6500    54.2350 ha         1 PHN       0.132000
     16 H1          66.7950    70.3730    55.4230 ha         1 PHN       0.133000
     17 H2          67.1340    69.8160    57.7530 ha         1 PHN       0.133000
     18 H3          68.4440    69.8870    59.7540 ha         1 PHN       0.133000
     19 H4          70.4150    70.5620    60.9670 ha         1 PHN       0.133000
     20 H5          72.5340    71.6660    61.0760 ha         1 PHN       0.133000
     21 H6          74.3130    72.9440    60.0480 ha         1 PHN       0.133000
     22 H7          74.1370    73.5900    57.7190 ha         1 PHN       0.132000
     23 H8          72.2010    72.9530    56.4310 ha         1 PHN       0.132000
     24 H9          70.4810    72.3650    55.3720 ha         1 PHN       0.132000
@<TRIPOS>BOND
     1     1    14 ar  
     2     1     2 ar  
     3     2     3 ar  
     4     3     4 ar  
     5     4    13 ar  
     6     4     5 ar  
     7     5     6 ar  
     8     6     7 ar  
     9     7    12 ar  
    10     7     8 ar  
    11     8     9 ar  
    12     9    10 ar  
    13    10    11 ar  
    14    11    12 ar  
    15    12    13 ar  
    16    13    14 ar  
    17     1    15 1   
    18     2    16 1   
    19     3    17 1   
    20     5    18 1   
    21     6    19 1   
    22     8    20 1   
    23     9    21 1   
    24    10    22 1   
    25    11    23 1   
    26    14    24 1   
@<TRIPOS>SUBSTRUCTURE
     1 PHN         1 TEMP              0 ****  ****    0 ROOT
