@<TRIPOS>MOLECULE
PYR
   26    29     1     0     0
SMALL
bcc


@<TRIPOS>ATOM
      1 C           73.3980    72.5650    59.3390 ca         1 PYR      -0.127000
      2 C1          72.3750    71.8660    59.9780 ca         1 PYR      -0.114000
      3 C2          71.2190    71.4920    59.2770 ca         1 PYR      -0.033000
      4 C3          70.1800    70.7880    59.9020 ca         1 PYR      -0.115000
      5 C4          69.0350    70.4230    59.1900 ca         1 PYR      -0.115000
      6 C5          68.8980    70.7510    57.8350 ca         1 PYR      -0.033000
      7 C6          67.7550    70.3920    57.1070 ca         1 PYR      -0.114000
      8 C7          67.6360    70.7270    55.7590 ca         1 PYR      -0.127000
      9 C8          68.6590    71.4260    55.1190 ca         1 PYR      -0.114000
     10 C9          69.8150    71.8010    55.8210 ca         1 PYR      -0.033000
     11 C10         70.8530    72.5050    55.1950 ca         1 PYR      -0.115000
     12 C11         71.9990    72.8700    55.9070 ca         1 PYR      -0.115000
     13 C12         72.1360    72.5420    57.2620 ca         1 PYR      -0.033000
     14 C13         73.2790    72.9010    57.9910 ca         1 PYR      -0.114000
     15 C14         71.0980    71.8310    57.9100 ca         1 PYR      -0.015000
     16 C15         69.9360    71.4620    57.1880 ca         1 PYR      -0.015000
     17 H           74.2450    72.8340    59.8640 ha         1 PYR       0.133000
     18 H1          72.4690    71.6210    60.9760 ha         1 PYR       0.134000
     19 H2          70.2620    70.5370    60.9000 ha         1 PYR       0.133000
     20 H3          68.2810    69.9050    59.6680 ha         1 PYR       0.133000
     21 H4          66.9940    69.8740    57.5740 ha         1 PYR       0.134000
     22 H5          66.7900    70.4570    55.2340 ha         1 PYR       0.133000
     23 H6          68.5650    71.6700    54.1210 ha         1 PYR       0.134000
     24 H7          70.7700    72.7570    54.1980 ha         1 PYR       0.133000
     25 H8          72.7530    73.3870    55.4290 ha         1 PYR       0.133000
     26 H9          74.0400    73.4190    57.5250 ha         1 PYR       0.134000
@<TRIPOS>BOND
     1     1    14 ar  
     2     1     2 ar  
     3     2     3 ar  
     4     3    15 ar  
     5     3     4 ar  
     6     4     5 ar  
     7     5     6 ar  
     8     6     7 ar  
     9     6    16 ar  
    10     7     8 ar  
    11     8     9 ar  
    12     9    10 ar  
    13    10    11 ar  
    14    10    16 ar  
    15    11    12 ar  
    16    12    13 ar  
    17    13    15 ar  
    18    13    14 ar  
    19    15    16 ar  
    20     1    17 1   
    21     2    18 1   
    22     4    19 1   
    23     5    20 1   
    24     7    21 1   
    25     8    22 1   
    26     9    23 1   
    27    11    24 1   
    28    12    25 1   
    29    14    26 1   
@<TRIPOS>SUBSTRUCTURE
     1 PYR         1 TEMP              0 ****  ****    0 ROOT
