naphthalene
     RDKit          3D

 18 19  0  0  0  0  0  0  0  0999 V2000
   -2.4541   -0.5841    0.2139 C   0  0  0  0  0  0  0  0  0  0  0  0
   -2.4071    0.6249   -0.4741 C   0  0  0  0  0  0  0  0  0  0  0  0
   -1.1763    1.2208   -0.7544 C   0  0  0  0  0  0  0  0  0  0  0  0
    0.0239    0.6142   -0.3495 C   0  0  0  0  0  0  0  0  0  0  0  0
    1.2704    1.2003   -0.6235 C   0  0  0  0  0  0  0  0  0  0  0  0
    2.4541    0.5841   -0.2139 C   0  0  0  0  0  0  0  0  0  0  0  0
    2.4071   -0.6249    0.4741 C   0  0  0  0  0  0  0  0  0  0  0  0
    1.1763   -1.2208    0.7544 C   0  0  0  0  0  0  0  0  0  0  0  0
   -0.0239   -0.6142    0.3495 C   0  0  0  0  0  0  0  0  0  0  0  0
   -1.2704   -1.2003    0.6235 C   0  0  0  0  0  0  0  0  0  0  0  0
   -3.4117   -1.0490    0.4327 H   0  0  0  0  0  0  0  0  0  0  0  0
   -3.3280    1.1056   -0.7934 H   0  0  0  0  0  0  0  0  0  0  0  0
   -1.1598    2.1655   -1.2930 H   0  0  0  0  0  0  0  0  0  0  0  0
    1.3273    2.1446   -1.1599 H   0  0  0  0  0  0  0  0  0  0  0  0
    3.4117    1.0490   -0.4327 H   0  0  0  0  0  0  0  0  0  0  0  0
    3.3280   -1.1056    0.7934 H   0  0  0  0  0  0  0  0  0  0  0  0
    1.1598   -2.1655    1.2930 H   0  0  0  0  0  0  0  0  0  0  0  0
   -1.3273   -2.1446    1.1599 H   0  0  0  0  0  0  0  0  0  0  0  0
  1  2  2  0
  2  3  1  0
  3  4  2  0
  4  5  1  0
  5  6  2  0
  6  7  1  0
  7  8  2  0
  8  9  1  0
  9 10  2  0
 10  1  1  0
  9  4  1  0
  1 11  1  0
  2 12  1  0
  3 13  1  0
  5 14  1  0
  6 15  1  0
  7 16  1  0
  8 17  1  0
 10 18  1  0
M  END
>  <PubChemCID>  (4) 
931

>  <provenance>  (4) 
reference smallest PAH (PAH class)

$$$$
