phenanthrene
     RDKit          3D

 24 26  0  0  0  0  0  0  0  0999 V2000
   -2.9892   -1.3039    0.2649 C   0  0  0  0  0  0  0  0  0  0  0  0
   -3.5744   -0.0816   -0.0266 C   0  0  0  0  0  0  0  0  0  0  0  0
   -2.7659    1.0246   -0.2733 C   0  0  0  0  0  0  0  0  0  0  0  0
   -1.3647    0.9234   -0.2320 C   0  0  0  0  0  0  0  0  0  0  0  0
   -0.5866    2.0559   -0.4852 C   0  0  0  0  0  0  0  0  0  0  0  0
    0.8034    1.9891   -0.4520 C   0  0  0  0  0  0  0  0  0  0  0  0
    1.4564    0.7879   -0.1645 C   0  0  0  0  0  0  0  0  0  0  0  0
    2.8613    0.7542   -0.1388 C   0  0  0  0  0  0  0  0  0  0  0  0
    3.5473   -0.4238    0.1437 C   0  0  0  0  0  0  0  0  0  0  0  0
    2.8345   -1.5838    0.4042 C   0  0  0  0  0  0  0  0  0  0  0  0
    1.4365   -1.5630    0.3815 C   0  0  0  0  0  0  0  0  0  0  0  0
    0.7009   -0.3840    0.0982 C   0  0  0  0  0  0  0  0  0  0  0  0
   -0.7383   -0.3149    0.0638 C   0  0  0  0  0  0  0  0  0  0  0  0
   -1.5963   -1.4173    0.3090 C   0  0  0  0  0  0  0  0  0  0  0  0
   -3.6106   -2.1742    0.4592 H   0  0  0  0  0  0  0  0  0  0  0  0
   -4.6560    0.0137   -0.0625 H   0  0  0  0  0  0  0  0  0  0  0  0
   -3.2423    1.9763   -0.5006 H   0  0  0  0  0  0  0  0  0  0  0  0
   -1.0567    3.0102   -0.7130 H   0  0  0  0  0  0  0  0  0  0  0  0
    1.3730    2.8935   -0.6549 H   0  0  0  0  0  0  0  0  0  0  0  0
    3.4369    1.6553   -0.3409 H   0  0  0  0  0  0  0  0  0  0  0  0
    4.6336   -0.4327    0.1596 H   0  0  0  0  0  0  0  0  0  0  0  0
    3.3597   -2.5091    0.6259 H   0  0  0  0  0  0  0  0  0  0  0  0
    0.9273   -2.4988    0.5925 H   0  0  0  0  0  0  0  0  0  0  0  0
   -1.1897   -2.3971    0.5419 H   0  0  0  0  0  0  0  0  0  0  0  0
  1  2  2  0
  2  3  1  0
  3  4  2  0
  4  5  1  0
  5  6  2  0
  6  7  1  0
  7  8  2  0
  8  9  1  0
  9 10  2  0
 10 11  1  0
 11 12  2  0
 12 13  1  0
 13 14  2  0
 14  1  1  0
 13  4  1  0
 12  7  1  0
  1 15  1  0
  2 16  1  0
  3 17  1  0
  5 18  1  0
  6 19  1  0
  8 20  1  0
  9 21  1  0
 10 22  1  0
 11 23  1  0
 14 24  1  0
M  END
>  <PubChemCID>  (2) 
995

>  <provenance>  (2) 
named (degradation intermediate; slides 8/19)

$$$$
