pyrene
     RDKit          3D

 26 29  0  0  0  0  0  0  0  0999 V2000
   -3.4323    0.7380   -0.1565 C   0  0  0  0  0  0  0  0  0  0  0  0
   -2.4975    1.7726   -0.1463 C   0  0  0  0  0  0  0  0  0  0  0  0
   -1.1241    1.4943   -0.0841 C   0  0  0  0  0  0  0  0  0  0  0  0
   -0.1700    2.5208   -0.0729 C   0  0  0  0  0  0  0  0  0  0  0  0
    1.1947    2.2274   -0.0107 C   0  0  0  0  0  0  0  0  0  0  0  0
    1.6408    0.8999    0.0419 C   0  0  0  0  0  0  0  0  0  0  0  0
    3.0072    0.5891    0.1047 C   0  0  0  0  0  0  0  0  0  0  0  0
    3.4324   -0.7380    0.1565 C   0  0  0  0  0  0  0  0  0  0  0  0
    2.4975   -1.7727    0.1463 C   0  0  0  0  0  0  0  0  0  0  0  0
    1.1241   -1.4943    0.0841 C   0  0  0  0  0  0  0  0  0  0  0  0
    0.1700   -2.5208    0.0729 C   0  0  0  0  0  0  0  0  0  0  0  0
   -1.1947   -2.2274    0.0107 C   0  0  0  0  0  0  0  0  0  0  0  0
   -1.6408   -0.8999   -0.0419 C   0  0  0  0  0  0  0  0  0  0  0  0
   -3.0072   -0.5891   -0.1047 C   0  0  0  0  0  0  0  0  0  0  0  0
   -0.6920    0.1488   -0.0315 C   0  0  0  0  0  0  0  0  0  0  0  0
    0.6920   -0.1488    0.0316 C   0  0  0  0  0  0  0  0  0  0  0  0
   -4.4939    0.9662   -0.2049 H   0  0  0  0  0  0  0  0  0  0  0  0
   -2.8498    2.8009   -0.1873 H   0  0  0  0  0  0  0  0  0  0  0  0
   -0.4816    3.5622   -0.1127 H   0  0  0  0  0  0  0  0  0  0  0  0
    1.9082    3.0484   -0.0037 H   0  0  0  0  0  0  0  0  0  0  0  0
    3.7523    1.3814    0.1137 H   0  0  0  0  0  0  0  0  0  0  0  0
    4.4939   -0.9662    0.2049 H   0  0  0  0  0  0  0  0  0  0  0  0
    2.8498   -2.8009    0.1873 H   0  0  0  0  0  0  0  0  0  0  0  0
    0.4815   -3.5622    0.1127 H   0  0  0  0  0  0  0  0  0  0  0  0
   -1.9082   -3.0484    0.0037 H   0  0  0  0  0  0  0  0  0  0  0  0
   -3.7523   -1.3814   -0.1137 H   0  0  0  0  0  0  0  0  0  0  0  0
  1  2  2  0
  2  3  1  0
  3  4  2  0
  4  5  1  0
  5  6  2  0
  6  7  1  0
  7  8  2  0
  8  9  1  0
  9 10  2  0
 10 11  1  0
 11 12  2  0
 12 13  1  0
 13 14  2  0
 13 15  1  0
 15 16  2  0
 14  1  1  0
 15  3  1  0
 16  6  1  0
 16 10  1  0
  1 17  1  0
  2 18  1  0
  4 19  1  0
  5 20  1  0
  7 21  1  0
  8 22  1  0
  9 23  1  0
 11 24  1  0
 12 25  1  0
 14 26  1  0
M  END
>  <PubChemCID>  (1) 
31423

>  <provenance>  (1) 
PRIMARY - team named it ('pyrene, should be common', 2.April)

$$$$
