31423
     RDKit          3D

 26 29  0  0  0  0  0  0  0  0999 V2000
   68.1713   80.2982   58.7948 C   0  0  0  0  0  0  0  0  0  0  0  0
   67.8412   78.9202   58.8033 C   0  0  0  0  0  0  0  0  0  0  0  0
   67.1449   81.2706   58.7555 C   0  0  0  0  0  0  0  0  0  0  0  0
   66.4857   78.5177   58.7726 C   0  0  0  0  0  0  0  0  0  0  0  0
   69.5268   80.7006   58.8255 C   0  0  0  0  0  0  0  0  0  0  0  0
   68.8675   77.9477   58.8426 C   0  0  0  0  0  0  0  0  0  0  0  0
   65.8075   80.8532   58.7254 C   0  0  0  0  0  0  0  0  0  0  0  0
   65.4823   79.4953   58.7339 C   0  0  0  0  0  0  0  0  0  0  0  0
   70.5302   79.7230   58.8642 C   0  0  0  0  0  0  0  0  0  0  0  0
   70.2050   78.3652   58.8726 C   0  0  0  0  0  0  0  0  0  0  0  0
   67.4878   82.6306   58.7474 C   0  0  0  0  0  0  0  0  0  0  0  0
   66.1753   77.1500   58.7816 C   0  0  0  0  0  0  0  0  0  0  0  0
   69.8372   82.0683   58.8165 C   0  0  0  0  0  0  0  0  0  0  0  0
   68.5247   76.5878   58.8506 C   0  0  0  0  0  0  0  0  0  0  0  0
   68.8244   83.0251   58.7778 C   0  0  0  0  0  0  0  0  0  0  0  0
   67.1881   76.1932   58.8203 C   0  0  0  0  0  0  0  0  0  0  0  0
   65.0011   81.5831   58.6950 H   0  0  0  0  0  0  0  0  0  0  0  0
   64.4326   79.2095   58.7098 H   0  0  0  0  0  0  0  0  0  0  0  0
   71.5798   80.0089   58.8883 H   0  0  0  0  0  0  0  0  0  0  0  0
   71.0113   77.6352   58.9031 H   0  0  0  0  0  0  0  0  0  0  0  0
   66.7155   83.3962   58.7174 H   0  0  0  0  0  0  0  0  0  0  0  0
   65.1399   76.8168   58.7586 H   0  0  0  0  0  0  0  0  0  0  0  0
   70.8726   82.4015   58.8397 H   0  0  0  0  0  0  0  0  0  0  0  0
   69.2970   75.8221   58.8805 H   0  0  0  0  0  0  0  0  0  0  0  0
   69.0773   84.0815   58.7712 H   0  0  0  0  0  0  0  0  0  0  0  0
   66.9351   75.1368   58.8269 H   0  0  0  0  0  0  0  0  0  0  0  0
  1  2  2  0
  1  3  1  0
  1  5  1  0
  2  4  1  0
  2  6  1  0
  3  7  2  0
  3 11  1  0
  4  8  2  0
  4 12  1  0
  5  9  1  0
  5 13  2  0
  6 10  1  0
  6 14  2  0
  7  8  1  0
  7 17  1  0
  8 18  1  0
  9 10  2  0
  9 19  1  0
 10 20  1  0
 11 15  2  0
 11 21  1  0
 12 16  2  0
 12 22  1  0
 13 15  1  0
 13 23  1  0
 14 16  1  0
 14 24  1  0
 15 25  1  0
 16 26  1  0
M  END
>  <PUBCHEM_COMPOUND_CID>  (1) 
31423

>  <PUBCHEM_CONFORMER_RMSD>  (1) 
0.4

>  <PUBCHEM_CONFORMER_DIVERSEORDER>  (1) 
1

>  <PUBCHEM_MMFF94_PARTIAL_CHARGES>  (1) 
20
10 -0.15
11 -0.15
12 -0.15
13 -0.15
14 -0.15
15 -0.15
16 -0.15
17 0.15
18 0.15
19 0.15
20 0.15
21 0.15
22 0.15
23 0.15
24 0.15
25 0.15
26 0.15
7 -0.15
8 -0.15
9 -0.15

>  <PUBCHEM_EFFECTIVE_ROTOR_COUNT>  (1) 
0

>  <PUBCHEM_PHARMACOPHORE_FEATURES>  (1) 
4
6 1 2 3 4 7 8 rings
6 1 2 5 6 9 10 rings
6 1 3 5 11 13 15 rings
6 2 4 6 12 14 16 rings

>  <PUBCHEM_HEAVY_ATOM_COUNT>  (1) 
16

>  <PUBCHEM_ATOM_DEF_STEREO_COUNT>  (1) 
0

>  <PUBCHEM_ATOM_UDEF_STEREO_COUNT>  (1) 
0

>  <PUBCHEM_BOND_DEF_STEREO_COUNT>  (1) 
0

>  <PUBCHEM_BOND_UDEF_STEREO_COUNT>  (1) 
0

>  <PUBCHEM_ISOTOPIC_ATOM_COUNT>  (1) 
0

>  <PUBCHEM_COMPONENT_COUNT>  (1) 
1

>  <PUBCHEM_CACTVS_TAUTO_COUNT>  (1) 
1

>  <PUBCHEM_CONFORMER_ID>  (1) 
00007ABF00000001

>  <PUBCHEM_MMFF94_ENERGY>  (1) 
55.2043

>  <PUBCHEM_FEATURE_SELFOVERLAP>  (1) 
20.43

>  <PUBCHEM_SHAPE_FINGERPRINT>  (1) 
10967382 1 18410575097558614759
11132069 177 18412257324748074536
11471102 20 18410288108360808925
11680986 33 18050004694746361457
12382932 28 18411699872189235872
13140716 1 18410856516690117072
13221675 6 18410575088958091686
13380535 76 18410572889935173923
13897977 150 18338514145135849245
14614273 12 18116146662860954381
14790565 3 18338538385642065892
15196674 1 18410575088958046212
15536298 74 18344145895343584774
16945 1 18410855464423129094
193761 8 17762336911923347460
19591789 44 18410579482710181158
20510252 161 18272369737506869208
20588541 1 18410858758663051628
20905425 154 18053102826519293030
21267235 1 18410583880756458406
21501502 16 18410856533869998792
22721475 48 18410578383198111653
2334 1 18410856589704560647
23402539 116 18342446050293437222
23419403 2 16041881920678951465
23463225 33 18408039598186104160
23559900 14 18270688679624706332
238 59 17757224337958452469
2748010 2 18410856572524691567
2897 32 18337111163755913468
335352 9 18050568447716229566
5104073 3 18410575084663079912
528886 8 18411414020704199522
53812653 166 18341891909112127168
589210 1 17689999354742484833
8809292 202 18333455347707503714

>  <PUBCHEM_SHAPE_MULTIPOLES>  (1) 
329.27
4.83
2.83
0.62
0
0
0
0
0
0
0
0
0
0

>  <PUBCHEM_SHAPE_SELFOVERLAP>  (1) 
771.543

>  <PUBCHEM_SHAPE_VOLUME>  (1) 
150.6

>  <PUBCHEM_COORDINATE_TYPE>  (1) 
2
5
10

>  <docking_score>  (1) 
-7.7629999999999999

$$$$
