anthracene
     RDKit          3D

 24 26  0  0  0  0  0  0  0  0999 V2000
   -3.5908    0.9843   -0.1306 C   0  0  0  0  0  0  0  0  0  0  0  0
   -3.7018   -0.3574    0.2209 C   0  0  0  0  0  0  0  0  0  0  0  0
   -2.5525   -1.1328    0.3819 C   0  0  0  0  0  0  0  0  0  0  0  0
   -1.2768   -0.5756    0.1934 C   0  0  0  0  0  0  0  0  0  0  0  0
   -0.1111   -1.3434    0.3519 C   0  0  0  0  0  0  0  0  0  0  0  0
    1.1643   -0.7855    0.1631 C   0  0  0  0  0  0  0  0  0  0  0  0
    2.3304   -1.5526    0.3215 C   0  0  0  0  0  0  0  0  0  0  0  0
    3.5908   -0.9843    0.1306 C   0  0  0  0  0  0  0  0  0  0  0  0
    3.7018    0.3574   -0.2209 C   0  0  0  0  0  0  0  0  0  0  0  0
    2.5525    1.1328   -0.3819 C   0  0  0  0  0  0  0  0  0  0  0  0
    1.2768    0.5756   -0.1934 C   0  0  0  0  0  0  0  0  0  0  0  0
    0.1111    1.3434   -0.3519 C   0  0  0  0  0  0  0  0  0  0  0  0
   -1.1643    0.7855   -0.1631 C   0  0  0  0  0  0  0  0  0  0  0  0
   -2.3304    1.5526   -0.3215 C   0  0  0  0  0  0  0  0  0  0  0  0
   -4.4843    1.5901   -0.2565 H   0  0  0  0  0  0  0  0  0  0  0  0
   -4.6822   -0.8020    0.3700 H   0  0  0  0  0  0  0  0  0  0  0  0
   -2.6598   -2.1797    0.6568 H   0  0  0  0  0  0  0  0  0  0  0  0
   -0.1979   -2.3929    0.6267 H   0  0  0  0  0  0  0  0  0  0  0  0
    2.2642   -2.6030    0.5959 H   0  0  0  0  0  0  0  0  0  0  0  0
    4.4843   -1.5900    0.2565 H   0  0  0  0  0  0  0  0  0  0  0  0
    4.6822    0.8020   -0.3700 H   0  0  0  0  0  0  0  0  0  0  0  0
    2.6598    2.1797   -0.6568 H   0  0  0  0  0  0  0  0  0  0  0  0
    0.1979    2.3929   -0.6267 H   0  0  0  0  0  0  0  0  0  0  0  0
   -2.2641    2.6030   -0.5959 H   0  0  0  0  0  0  0  0  0  0  0  0
  1  2  2  0
  2  3  1  0
  3  4  2  0
  4  5  1  0
  5  6  2  0
  6  7  1  0
  7  8  2  0
  8  9  1  0
  9 10  2  0
 10 11  1  0
 11 12  2  0
 12 13  1  0
 13 14  2  0
 14  1  1  0
 13  4  1  0
 11  6  1  0
  1 15  1  0
  2 16  1  0
  3 17  1  0
  5 18  1  0
  7 19  1  0
  8 20  1  0
  9 21  1  0
 10 22  1  0
 12 23  1  0
 14 24  1  0
M  END
>  <PubChemCID>  (5) 
8418

>  <provenance>  (5) 
specificity probe (phenanthrene isomer)

$$$$