benzo_a_pyrene
     RDKit          3D

 32 36  0  0  0  0  0  0  0  0999 V2000
    4.7549   -0.2871   -0.0852 C   0  0  0  0  0  0  0  0  0  0  0  0
    4.3809    0.7759   -0.8915 C   0  0  0  0  0  0  0  0  0  0  0  0
    3.0271    1.0886   -1.0477 C   0  0  0  0  0  0  0  0  0  0  0  0
    1.9984    0.3520   -0.4051 C   0  0  0  0  0  0  0  0  0  0  0  0
    2.4102   -0.7289    0.4126 C   0  0  0  0  0  0  0  0  0  0  0  0
    3.7746   -1.0338    0.5621 C   0  0  0  0  0  0  0  0  0  0  0  0
    1.4564   -1.5039    1.0803 C   0  0  0  0  0  0  0  0  0  0  0  0
    0.0888   -1.2411    0.9640 C   0  0  0  0  0  0  0  0  0  0  0  0
   -0.8456   -2.0340    1.6444 C   0  0  0  0  0  0  0  0  0  0  0  0
   -2.2126   -1.7816    1.5362 C   0  0  0  0  0  0  0  0  0  0  0  0
   -2.6789   -0.7288    0.7439 C   0  0  0  0  0  0  0  0  0  0  0  0
   -4.0520   -0.4663    0.6282 C   0  0  0  0  0  0  0  0  0  0  0  0
   -4.5092    0.5848   -0.1634 C   0  0  0  0  0  0  0  0  0  0  0  0
   -3.5983    1.3857   -0.8485 C   0  0  0  0  0  0  0  0  0  0  0  0
   -2.2196    1.1445   -0.7498 C   0  0  0  0  0  0  0  0  0  0  0  0
   -1.2981    1.9392   -1.4307 C   0  0  0  0  0  0  0  0  0  0  0  0
    0.0735    1.6890   -1.3245 C   0  0  0  0  0  0  0  0  0  0  0  0
    0.5931    0.6360   -0.5356 C   0  0  0  0  0  0  0  0  0  0  0  0
   -0.3503   -0.1702    0.1558 C   0  0  0  0  0  0  0  0  0  0  0  0
   -1.7476    0.0816    0.0500 C   0  0  0  0  0  0  0  0  0  0  0  0
    5.8047   -0.5367    0.0415 H   0  0  0  0  0  0  0  0  0  0  0  0
    5.1369    1.3665   -1.4022 H   0  0  0  0  0  0  0  0  0  0  0  0
    2.7906    1.9313   -1.6908 H   0  0  0  0  0  0  0  0  0  0  0  0
    4.0871   -1.8651    1.1912 H   0  0  0  0  0  0  0  0  0  0  0  0
    1.7861   -2.3320    1.7059 H   0  0  0  0  0  0  0  0  0  0  0  0
   -0.5162   -2.8614    2.2695 H   0  0  0  0  0  0  0  0  0  0  0  0
   -2.9093   -2.4170    2.0781 H   0  0  0  0  0  0  0  0  0  0  0  0
   -4.7776   -1.0813    1.1560 H   0  0  0  0  0  0  0  0  0  0  0  0
   -5.5751    0.7798   -0.2464 H   0  0  0  0  0  0  0  0  0  0  0  0
   -3.9728    2.2021   -1.4620 H   0  0  0  0  0  0  0  0  0  0  0  0
   -1.6338    2.7649   -2.0541 H   0  0  0  0  0  0  0  0  0  0  0  0
    0.7340    2.3471   -1.8818 H   0  0  0  0  0  0  0  0  0  0  0  0
  1  2  2  0
  2  3  1  0
  3  4  2  0
  4  5  1  0
  5  6  2  0
  5  7  1  0
  7  8  2  0
  8  9  1  0
  9 10  2  0
 10 11  1  0
 11 12  2  0
 12 13  1  0
 13 14  2  0
 14 15  1  0
 15 16  2  0
 16 17  1  0
 17 18  2  0
 18 19  1  0
 19 20  2  0
  6  1  1  0
 19  8  1  0
 18  4  1  0
 20 11  1  0
 20 15  1  0
  1 21  1  0
  2 22  1  0
  3 23  1  0
  6 24  1  0
  7 25  1  0
  9 26  1  0
 10 27  1  0
 12 28  1  0
 13 29  1  0
 14 30  1  0
 16 31  1  0
 17 32  1  0
M  END
>  <PubChemCID>  (3) 
2336

>  <provenance>  (3) 
named (TonB transport hypothesis, slide 5); carcinogenic marker

$$$$