fluoranthene
     RDKit          3D

 26 29  0  0  0  0  0  0  0  0999 V2000
    3.5666    0.7931    0.6332 C   0  0  0  0  0  0  0  0  0  0  0  0
    3.5556   -0.5958    0.8680 C   0  0  0  0  0  0  0  0  0  0  0  0
    2.3784   -1.3403    0.7414 C   0  0  0  0  0  0  0  0  0  0  0  0
    1.2267   -0.6679    0.3784 C   0  0  0  0  0  0  0  0  0  0  0  0
    1.2378    0.7363    0.1411 C   0  0  0  0  0  0  0  0  0  0  0  0
    2.4007    1.4728    0.2659 C   0  0  0  0  0  0  0  0  0  0  0  0
   -0.1213    1.1197   -0.2173 C   0  0  0  0  0  0  0  0  0  0  0  0
   -0.7055    2.3284   -0.5495 C   0  0  0  0  0  0  0  0  0  0  0  0
   -2.0800    2.3486   -0.8492 C   0  0  0  0  0  0  0  0  0  0  0  0
   -2.8585    1.1705   -0.8159 C   0  0  0  0  0  0  0  0  0  0  0  0
   -2.2675   -0.0628   -0.4779 C   0  0  0  0  0  0  0  0  0  0  0  0
   -2.8782   -1.3295   -0.3933 C   0  0  0  0  0  0  0  0  0  0  0  0
   -2.1180   -2.4649   -0.0356 C   0  0  0  0  0  0  0  0  0  0  0  0
   -0.7426   -2.3685    0.2443 C   0  0  0  0  0  0  0  0  0  0  0  0
   -0.1391   -1.1269    0.1624 C   0  0  0  0  0  0  0  0  0  0  0  0
   -0.9053   -0.0251   -0.1908 C   0  0  0  0  0  0  0  0  0  0  0  0
    4.4982    1.3448    0.7398 H   0  0  0  0  0  0  0  0  0  0  0  0
    4.4789   -1.0960    1.1523 H   0  0  0  0  0  0  0  0  0  0  0  0
    2.3763   -2.4089    0.9234 H   0  0  0  0  0  0  0  0  0  0  0  0
    2.4155    2.5417    0.0866 H   0  0  0  0  0  0  0  0  0  0  0  0
   -0.1241    3.2435   -0.5805 H   0  0  0  0  0  0  0  0  0  0  0  0
   -2.5545    3.2917   -1.1125 H   0  0  0  0  0  0  0  0  0  0  0  0
   -3.9180    1.2218   -1.0529 H   0  0  0  0  0  0  0  0  0  0  0  0
   -3.9390   -1.4396   -0.6031 H   0  0  0  0  0  0  0  0  0  0  0  0
   -2.6077   -3.4348    0.0244 H   0  0  0  0  0  0  0  0  0  0  0  0
   -0.1754   -3.2518    0.5174 H   0  0  0  0  0  0  0  0  0  0  0  0
  1  2  2  0
  2  3  1  0
  3  4  2  0
  4  5  1  0
  5  6  2  0
  5  7  1  0
  7  8  2  0
  8  9  1  0
  9 10  2  0
 10 11  1  0
 11 12  1  0
 12 13  2  0
 13 14  1  0
 14 15  2  0
 15 16  1  0
  6  1  1  0
 16  7  1  0
  4 15  1  0
 16 11  2  0
  1 17  1  0
  2 18  1  0
  3 19  1  0
  6 20  1  0
  8 21  1  0
  9 22  1  0
 10 23  1  0
 12 24  1  0
 13 25  1  0
 14 26  1  0
M  END
>  <PubChemCID>  (6) 
9154

>  <provenance>  (6) 
EQS Saar PAH

$$$$