glucose_NEGCTRL
     RDKit          3D

 24 24  0  0  0  0  0  0  0  0999 V2000
    3.2372   -1.3515    0.7031 O   0  0  0  0  0  0  0  0  0  0  0  0
    2.5584   -0.0932    0.7416 C   0  0  0  0  0  0  0  0  0  0  0  0
    1.2349   -0.1931   -0.0258 C   0  0  1  0  0  0  0  0  0  0  0  0
    0.4654   -1.2488    0.5853 O   0  0  0  0  0  0  0  0  0  0  0  0
   -0.7807   -1.4861   -0.0604 C   0  0  0  0  0  0  0  0  0  0  0  0
   -0.5876   -1.9811   -1.3789 O   0  0  0  0  0  0  0  0  0  0  0  0
   -1.6594   -0.2193   -0.0616 C   0  0  2  0  0  0  0  0  0  0  0  0
   -2.8546   -0.4209   -0.8336 O   0  0  0  0  0  0  0  0  0  0  0  0
   -0.8903    0.9549   -0.6711 C   0  0  1  0  0  0  0  0  0  0  0  0
   -1.6484    2.1679   -0.5263 O   0  0  0  0  0  0  0  0  0  0  0  0
    0.4653    1.1311    0.0149 C   0  0  2  0  0  0  0  0  0  0  0  0
    1.1878    2.1774   -0.6354 O   0  0  0  0  0  0  0  0  0  0  0  0
    2.5442   -2.0272    0.8355 H   0  0  0  0  0  0  0  0  0  0  0  0
    2.3827    0.1446    1.7960 H   0  0  0  0  0  0  0  0  0  0  0  0
    3.2207    0.6643    0.3131 H   0  0  0  0  0  0  0  0  0  0  0  0
    1.4689   -0.4820   -1.0587 H   0  0  0  0  0  0  0  0  0  0  0  0
   -1.2992   -2.2769    0.4911 H   0  0  0  0  0  0  0  0  0  0  0  0
   -1.2640   -1.5648   -1.9445 H   0  0  0  0  0  0  0  0  0  0  0  0
   -1.9592    0.0408    0.9609 H   0  0  0  0  0  0  0  0  0  0  0  0
   -3.3923   -1.0884   -0.3672 H   0  0  0  0  0  0  0  0  0  0  0  0
   -0.7565    0.8195   -1.7516 H   0  0  0  0  0  0  0  0  0  0  0  0
   -2.5312    1.9681   -0.8969 H   0  0  0  0  0  0  0  0  0  0  0  0
    0.3047    1.4469    1.0535 H   0  0  0  0  0  0  0  0  0  0  0  0
    0.5533    2.9178   -0.7201 H   0  0  0  0  0  0  0  0  0  0  0  0
  1  2  1  0
  2  3  1  0
  3  4  1  0
  4  5  1  0
  5  6  1  0
  5  7  1  0
  7  8  1  0
  7  9  1  0
  9 10  1  0
  9 11  1  0
 11 12  1  0
 11  3  1  0
  1 13  1  0
  2 14  1  0
  2 15  1  0
  3 16  1  6
  5 17  1  0
  6 18  1  0
  7 19  1  1
  8 20  1  0
  9 21  1  6
 10 22  1  0
 11 23  1  1
 12 24  1  0
M  END
>  <PubChemCID>  (7) 
5793

>  <provenance>  (7) 
PROPOSED negative control (polar, non-aromatic) - not from files

$$$$
