benzo_a_pyrene
     RDKit          3D

  0  0  0  0  0  0  0  0  0  0999 V3000
M  V30 BEGIN CTAB
M  V30 COUNTS 32 36 0 0 1
M  V30 BEGIN ATOM
M  V30 1 C 76.202640 74.209652 59.496672 0
M  V30 2 C 75.469611 73.685041 60.574032 0
M  V30 3 C 74.222684 73.071659 60.348293 0
M  V30 4 C 73.682899 72.971550 59.039103 0
M  V30 5 C 74.428209 73.518836 57.967096 0
M  V30 6 C 75.680046 74.128465 58.194335 0
M  V30 7 C 73.923787 73.461164 56.659908 0
M  V30 8 C 72.675437 72.881004 56.373000 0
M  V30 9 C 72.166831 72.854079 54.997796 0
M  V30 10 C 70.968819 72.320011 54.735025 0
M  V30 11 C 70.165900 71.760000 55.822920 0
M  V30 12 C 68.875779 71.243491 55.578900 0
M  V30 13 C 68.095484 70.685723 56.596539 0
M  V30 14 C 68.607896 70.646116 57.896577 0
M  V30 15 C 69.870505 71.185283 58.197751 0
M  V30 16 C 70.396418 71.157657 59.494373 0
M  V30 17 C 71.642372 71.728136 59.781152 0
M  V30 18 C 72.430559 72.346343 58.785128 0
M  V30 19 C 71.926976 72.330118 57.450120 0
M  V30 20 C 70.649345 71.760000 57.161139 0
M  V30 21 H 77.160241 74.678880 59.669741 0
M  V30 22 H 75.866219 73.747622 61.577027 0
M  V30 23 H 73.707572 72.686415 61.212296 0
M  V30 24 H 76.245060 74.541053 57.371011 0
M  V30 25 H 74.502904 73.883912 55.851557 0
M  V30 26 H 72.777707 73.266294 54.207883 0
M  V30 27 H 70.579701 72.280623 53.727936 0
M  V30 28 H 68.476538 71.251189 54.580000 0
M  V30 29 H 67.122306 70.277002 56.373532 0
M  V30 30 H 68.030000 70.190821 58.680358 0
M  V30 31 H 69.821555 70.706936 60.290462 0
M  V30 32 H 71.976045 71.679439 60.803932 0
M  V30 END ATOM
M  V30 BEGIN BOND
M  V30 1 2 2 1
M  V30 2 1 3 2
M  V30 3 2 4 3
M  V30 4 1 5 4
M  V30 5 1 6 1
M  V30 6 2 6 5
M  V30 7 1 7 5
M  V30 8 2 8 7
M  V30 9 1 9 8
M  V30 10 2 10 9
M  V30 11 1 11 10
M  V30 12 2 12 11
M  V30 13 1 13 12
M  V30 14 2 14 13
M  V30 15 1 15 14
M  V30 16 2 16 15
M  V30 17 1 17 16
M  V30 18 1 18 4
M  V30 19 2 18 17
M  V30 20 1 19 8
M  V30 21 1 19 18
M  V30 22 1 20 11
M  V30 23 1 20 15
M  V30 24 2 20 19
M  V30 25 1 21 1
M  V30 26 1 22 2
M  V30 27 1 23 3
M  V30 28 1 24 6
M  V30 29 1 25 7
M  V30 30 1 26 9
M  V30 31 1 27 10
M  V30 32 1 28 12
M  V30 33 1 29 13
M  V30 34 1 30 14
M  V30 35 1 31 16
M  V30 36 1 32 17
M  V30 END BOND
M  V30 END CTAB
M  END
>  <i_i_glide_confnum>  (4) 
1

>  <i_i_glide_lignum>  (4) 
3

>  <i_i_glide_posenum>  (4) 
230

>  <i_i_glide_rotatable_bonds>  (4) 
0

>  <i_lp_mmshare_version>  (4) 
73136

>  <i_m_source_file_index>  (4) 
3

>  <PubChemCID>  (4) 
2336

>  <i_f3d_flags>  (4) 
0

>  <b_lp_Chiralities_Consistent>  (4) 
1

>  <r_glide_cpu_time>  (4) 
1.34375

>  <r_glide_ring_energy>  (4) 
0

>  <r_i_docking_score>  (4) 
-6.008091901737675

>  <r_i_glide_ecoul>  (4) 
-0.56781606923362427

>  <r_i_glide_einternal>  (4) 
0

>  <r_i_glide_emodel>  (4) 
-33.995949211818655

>  <r_i_glide_energy>  (4) 
-24.972486718796954

>  <r_i_glide_erotb>  (4) 
0

>  <r_i_glide_esite>  (4) 
0

>  <r_i_glide_evdw>  (4) 
-24.404670649563329

>  <r_i_glide_gscore>  (4) 
-6.008091901737675

>  <r_i_glide_hbond>  (4) 
0

>  <r_i_glide_ligand_efficiency>  (4) 
-0.30040459508688377

>  <r_i_glide_ligand_efficiency_ln>  (4) 
-1.5036272428717548

>  <r_i_glide_ligand_efficiency_sa>  (4) 
-0.81542352500989701

>  <r_i_glide_lipo>  (4) 
-2.9473764627803773

>  <r_i_glide_metal>  (4) 
-0

>  <r_i_glide_rewards>  (4) 
-1.7553094960940869

>  <r_lp_Energy>  (4) 
44.326904999999996

>  <s_glide_docking_method>  (4) 
confgen

>  <s_i_glide_gridfile>  (4) 
PahP_glide_grid

>  <s_lp_Force_Field>  (4) 
OPLS_2005

>  <s_lp_Variant>  (4) 
benzo_a_pyrene-1

>  <s_m_source_file>  (4) 
input/canonical/ligands/ligands.sdf

>  <provenance>  (4) 
named (TonB transport hypothesis, slide 5); carcinogenic marker

$$$$
