glucose_NEGCTRL
     RDKit          3D

  0  0  0  0  0  0  0  0  0  0999 V3000
M  V30 BEGIN CTAB
M  V30 COUNTS 24 24 0 0 1
M  V30 BEGIN ATOM
M  V30 1 O 72.030000 74.161790 55.825067 0
M  V30 2 C 72.779452 73.359457 56.733716 0
M  V30 3 C 71.879575 72.737943 57.816820 0 CFG=1
M  V30 4 O 70.951395 71.873683 57.134713 0
M  V30 5 C 69.984142 71.252210 57.948323 0 CFG=2
M  V30 6 O 69.203900 72.243775 58.580000 0
M  V30 7 C 70.677476 70.351604 58.979996 0 CFG=2
M  V30 8 O 69.676376 69.760031 59.795601 0
M  V30 9 C 71.708620 71.132797 59.807476 0 CFG=1
M  V30 10 O 72.429994 70.225739 60.649218 0
M  V30 11 C 72.658869 71.901611 58.862682 0 CFG=2
M  V30 12 O 73.524851 72.742580 59.622398 0
M  V30 13 H 72.626193 74.481684 55.132108 0
M  V30 14 H 73.293624 72.576689 56.174852 0
M  V30 15 H 73.548832 73.982992 57.189595 0
M  V30 16 H 71.336379 73.541541 58.317414 0
M  V30 17 H 69.368024 70.655160 57.262936 0
M  V30 18 H 68.723632 72.726462 57.891759 0
M  V30 19 H 71.204276 69.559842 58.447566 0
M  V30 20 H 69.157020 70.473964 60.199097 0
M  V30 21 H 71.197940 71.857953 60.440827 0
M  V30 22 H 72.862295 69.546234 60.107308 0
M  V30 23 H 73.255738 71.173244 58.316779 0
M  V30 24 H 74.204497 73.113635 59.043731 0
M  V30 END ATOM
M  V30 BEGIN BOND
M  V30 1 1 2 1
M  V30 2 1 3 2
M  V30 3 1 4 3
M  V30 4 1 5 4
M  V30 5 1 6 5
M  V30 6 1 7 5
M  V30 7 1 8 7
M  V30 8 1 9 7
M  V30 9 1 10 9
M  V30 10 1 11 3
M  V30 11 1 11 9
M  V30 12 1 12 11
M  V30 13 1 13 1
M  V30 14 1 14 2
M  V30 15 1 15 2
M  V30 16 1 3 16 CFG=1
M  V30 17 1 5 17 CFG=3
M  V30 18 1 18 6
M  V30 19 1 7 19 CFG=3
M  V30 20 1 20 8
M  V30 21 1 9 21 CFG=1
M  V30 22 1 22 10
M  V30 23 1 11 23 CFG=3
M  V30 24 1 24 12
M  V30 END BOND
M  V30 END CTAB
M  END
>  <i_i_glide_confnum>  (2) 
2

>  <i_i_glide_lignum>  (2) 
7

>  <i_i_glide_posenum>  (2) 
408

>  <i_i_glide_rotatable_bonds>  (2) 
6

>  <i_lp_mmshare_version>  (2) 
73136

>  <i_m_source_file_index>  (2) 
7

>  <PubChemCID>  (2) 
5793

>  <i_f3d_flags>  (2) 
0

>  <b_lp_Chiralities_Consistent>  (2) 
1

>  <r_glide_cpu_time>  (2) 
4.984375

>  <r_glide_ring_energy>  (2) 
0

>  <r_i_docking_score>  (2) 
-6.0404315003792917

>  <r_i_glide_ecoul>  (2) 
-8.8661767502690818

>  <r_i_glide_einternal>  (2) 
1.7971728627954886

>  <r_i_glide_emodel>  (2) 
-31.95946986938776

>  <r_i_glide_energy>  (2) 
-24.576457724093174

>  <r_i_glide_erotb>  (2) 
0.48540671602594931

>  <r_i_glide_esite>  (2) 
0

>  <r_i_glide_evdw>  (2) 
-15.710280973824092

>  <r_i_glide_gscore>  (2) 
-6.0404315003792917

>  <r_i_glide_hbond>  (2) 
-0.78572984999751672

>  <r_i_glide_ligand_efficiency>  (2) 
-0.50336929169827427

>  <r_i_glide_ligand_efficiency_ln>  (2) 
-1.7333122827685365

>  <r_i_glide_ligand_efficiency_sa>  (2) 
-1.1524279949419947

>  <r_i_glide_lipo>  (2) 
-1.005865623121535

>  <r_i_glide_metal>  (2) 
-0

>  <r_i_glide_rewards>  (2) 
-2.6188021820546212

>  <r_lp_Energy>  (2) 
23.232617999999999

>  <s_glide_docking_method>  (2) 
confgen

>  <s_i_glide_gridfile>  (2) 
PahP_glide_grid

>  <s_lp_Force_Field>  (2) 
OPLS_2005

>  <s_lp_Variant>  (2) 
glucose_NEGCTRL-1

>  <s_m_source_file>  (2) 
input/canonical/ligands/ligands.sdf

>  <provenance>  (2) 
PROPOSED negative control (polar, non-aromatic) - not from files

$$$$
