anthracene
     RDKit          3D

  0  0  0  0  0  0  0  0  0  0999 V3000
M  V30 BEGIN CTAB
M  V30 COUNTS 24 26 0 0 1
M  V30 BEGIN ATOM
M  V30 1 C 68.218638 70.785401 56.939924 0
M  V30 2 C 68.830004 71.171231 55.733566 0
M  V30 3 C 70.111065 71.759865 55.736428 0
M  V30 4 C 70.801646 71.927608 56.952290 0
M  V30 5 C 72.091475 72.495010 56.965423 0
M  V30 6 C 72.773966 72.667880 58.186820 0
M  V30 7 C 74.056583 73.253108 58.207080 0
M  V30 8 C 74.728928 73.435594 59.431180 0
M  V30 9 C 74.124290 73.030476 60.636565 0
M  V30 10 C 72.847754 72.437746 60.621458 0
M  V30 11 C 72.167124 72.256895 59.399888 0
M  V30 12 C 70.883780 71.675405 59.379997 0
M  V30 13 C 70.193874 71.520102 58.165193 0
M  V30 14 C 68.900610 70.960015 58.157729 0
M  V30 15 H 67.230000 70.353134 56.927334 0
M  V30 16 H 68.315224 71.020929 54.796841 0
M  V30 17 H 70.563647 72.054178 54.800519 0
M  V30 18 H 72.553133 72.806007 56.039548 0
M  V30 19 H 74.528279 73.569232 57.287877 0
M  V30 20 H 75.710160 73.887106 59.446449 0
M  V30 21 H 74.642742 73.171471 61.573812 0
M  V30 22 H 72.399745 72.131163 61.553641 0
M  V30 23 H 70.411738 71.355345 60.294120 0
M  V30 24 H 68.430078 70.658231 59.082562 0
M  V30 END ATOM
M  V30 BEGIN BOND
M  V30 1 2 2 1
M  V30 2 1 3 2
M  V30 3 2 4 3
M  V30 4 1 5 4
M  V30 5 2 6 5
M  V30 6 1 7 6
M  V30 7 2 8 7
M  V30 8 1 9 8
M  V30 9 2 10 9
M  V30 10 1 11 6
M  V30 11 1 11 10
M  V30 12 2 12 11
M  V30 13 1 13 4
M  V30 14 1 13 12
M  V30 15 1 14 1
M  V30 16 2 14 13
M  V30 17 1 15 1
M  V30 18 1 16 2
M  V30 19 1 17 3
M  V30 20 1 18 5
M  V30 21 1 19 7
M  V30 22 1 20 8
M  V30 23 1 21 9
M  V30 24 1 22 10
M  V30 25 1 23 12
M  V30 26 1 24 14
M  V30 END BOND
M  V30 END CTAB
M  END
>  <i_i_glide_confnum>  (1) 
1

>  <i_i_glide_lignum>  (1) 
5

>  <i_i_glide_posenum>  (1) 
116

>  <i_i_glide_rotatable_bonds>  (1) 
0

>  <i_lp_mmshare_version>  (1) 
73136

>  <i_m_source_file_index>  (1) 
5

>  <PubChemCID>  (1) 
8418

>  <i_f3d_flags>  (1) 
0

>  <b_lp_Chiralities_Consistent>  (1) 
1

>  <r_glide_cpu_time>  (1) 
1.25

>  <r_glide_ring_energy>  (1) 
0

>  <r_i_docking_score>  (1) 
-6.1143972930111419

>  <r_i_glide_ecoul>  (1) 
-0.35775160442110621

>  <r_i_glide_einternal>  (1) 
0

>  <r_i_glide_emodel>  (1) 
-28.704764845543419

>  <r_i_glide_energy>  (1) 
-20.868393691823155

>  <r_i_glide_erotb>  (1) 
0

>  <r_i_glide_esite>  (1) 
0

>  <r_i_glide_evdw>  (1) 
-20.510642087402047

>  <r_i_glide_gscore>  (1) 
-6.1143972930111419

>  <r_i_glide_hbond>  (1) 
0

>  <r_i_glide_ligand_efficiency>  (1) 
-0.43674266378651011

>  <r_i_glide_ligand_efficiency_ln>  (1) 
-1.6802146103198627

>  <r_i_glide_ligand_efficiency_sa>  (1) 
-1.0526119525603408

>  <r_i_glide_lipo>  (1) 
-2.799688963129388

>  <r_i_glide_metal>  (1) 
-0

>  <r_i_glide_rewards>  (1) 
-2.2355134848484846

>  <r_lp_Energy>  (1) 
13.742320999999999

>  <s_glide_docking_method>  (1) 
confgen

>  <s_i_glide_gridfile>  (1) 
PahP_glide_grid

>  <s_lp_Force_Field>  (1) 
OPLS_2005

>  <s_lp_Variant>  (1) 
anthracene-1

>  <s_m_source_file>  (1) 
input/canonical/ligands/ligands.sdf

>  <provenance>  (1) 
specificity probe (phenanthrene isomer)

$$$$
