naphthalene
     RDKit          3D

  0  0  0  0  0  0  0  0  0  0999 V3000
M  V30 BEGIN CTAB
M  V30 COUNTS 18 19 0 0 1
M  V30 BEGIN ATOM
M  V30 1 C 72.829485 72.160167 58.659649 0
M  V30 2 C 72.019731 71.760117 59.740329 0
M  V30 3 C 70.688182 71.359825 59.514901 0
M  V30 4 C 70.162465 71.358671 58.206211 0
M  V30 5 C 68.830007 70.958948 57.974170 0
M  V30 6 C 68.310631 70.959898 56.664851 0
M  V30 7 C 69.120393 71.359982 55.584181 0
M  V30 8 C 70.451944 71.760222 55.809591 0
M  V30 9 C 70.977651 71.761395 57.118292 0
M  V30 10 C 72.310109 72.161121 57.350328 0
M  V30 11 H 73.850237 72.466705 58.834954 0
M  V30 12 H 72.420194 71.760209 60.743450 0
M  V30 13 H 70.074220 71.054523 60.349737 0
M  V30 14 H 68.201758 70.650548 58.797149 0
M  V30 15 H 67.289881 70.653358 56.489548 0
M  V30 16 H 68.719929 71.359851 54.581052 0
M  V30 17 H 71.065894 72.065532 54.974752 0
M  V30 18 H 72.938364 72.469514 56.527349 0
M  V30 END ATOM
M  V30 BEGIN BOND
M  V30 1 2 2 1
M  V30 2 1 3 2
M  V30 3 2 4 3
M  V30 4 1 5 4
M  V30 5 2 6 5
M  V30 6 1 7 6
M  V30 7 2 8 7
M  V30 8 1 9 4
M  V30 9 1 9 8
M  V30 10 1 10 1
M  V30 11 2 10 9
M  V30 12 1 11 1
M  V30 13 1 12 2
M  V30 14 1 13 3
M  V30 15 1 14 5
M  V30 16 1 15 6
M  V30 17 1 16 7
M  V30 18 1 17 8
M  V30 19 1 18 10
M  V30 END BOND
M  V30 END CTAB
M  END
>  <i_i_glide_confnum>  (22) 
1

>  <i_i_glide_lignum>  (22) 
4

>  <i_i_glide_posenum>  (22) 
319

>  <i_i_glide_rotatable_bonds>  (22) 
0

>  <i_lp_mmshare_version>  (22) 
73136

>  <i_m_source_file_index>  (22) 
4

>  <PubChemCID>  (22) 
931

>  <i_f3d_flags>  (22) 
0

>  <b_lp_Chiralities_Consistent>  (22) 
1

>  <r_glide_cpu_time>  (22) 
1.046875

>  <r_glide_ring_energy>  (22) 
0

>  <r_i_docking_score>  (22) 
-5.4706804264329101

>  <r_i_glide_ecoul>  (22) 
-0.29819854670984081

>  <r_i_glide_einternal>  (22) 
0

>  <r_i_glide_emodel>  (22) 
-23.810767978382643

>  <r_i_glide_energy>  (22) 
-17.649538925996833

>  <r_i_glide_erotb>  (22) 
0

>  <r_i_glide_esite>  (22) 
0

>  <r_i_glide_evdw>  (22) 
-17.351340379286992

>  <r_i_glide_gscore>  (22) 
-5.4706804264329101

>  <r_i_glide_hbond>  (22) 
0

>  <r_i_glide_ligand_efficiency>  (22) 
-0.54706804264329101

>  <r_i_glide_ligand_efficiency_ln>  (22) 
-1.6564843213391121

>  <r_i_glide_ligand_efficiency_sa>  (22) 
-1.1786223688785482

>  <r_i_glide_lipo>  (22) 
-2.3083836254620844

>  <r_i_glide_metal>  (22) 
-0

>  <r_i_glide_rewards>  (22) 
-2.25

>  <r_lp_Energy>  (22) 
9.5043810000000004

>  <s_glide_docking_method>  (22) 
confgen

>  <s_i_glide_gridfile>  (22) 
PahP_glide_grid

>  <s_lp_Force_Field>  (22) 
OPLS_2005

>  <s_lp_Variant>  (22) 
naphthalene-1

>  <s_m_source_file>  (22) 
input/canonical/ligands/ligands.sdf

>  <provenance>  (22) 
reference smallest PAH (PAH class)

$$$$
